<?xml version="1.0" encoding="UTF-8"?>

<!-- generated on 03/22/16 15:32:58 by SUMO duarouter Version 0.25.0
<?xml version="1.0" encoding="UTF-8"?>

<configuration xmlns:xsi="http://www.w3.org/2001/XMLSchema-instance" xsi:noNamespaceSchemaLocation="http://sumo.dlr.de/xsd/duarouterConfiguration.xsd">

    <input>
        <net-file value="osm.net.xml"/>
        <trip-files value="trips.trips.xml"/>
    </input>

    <output>
        <output-file value="-e"/>
    </output>

    <processing>
        <ignore-errors value="true"/>
    </processing>

    <time>
        <begin value="0"/>
        <end value="3600"/>
    </time>

    <report>
        <no-warnings value="true"/>
        <no-step-log value="true"/>
    </report>

</configuration>
-->

<routes xmlns:xsi="http://www.w3.org/2001/XMLSchema-instance" xsi:noNamespaceSchemaLocation="http://sumo.dlr.de/xsd/routes_file.xsd">
    <vehicle id="1" depart="1.00">
        <routeDistribution last="0">
            <route cost="111.60" probability="1.00000000" edges="56651865#2 -56651866#0"/>
        </routeDistribution>
    </vehicle>
    <vehicle id="3" depart="3.00">
        <routeDistribution last="0">
            <route cost="66.33" probability="1.00000000" edges="76609190#9 -76609190#9 -76609185#0 29255885#2 29255885#3"/>
        </routeDistribution>
    </vehicle>
    <vehicle id="11" depart="11.00">
        <routeDistribution last="0">
            <route cost="150.85" probability="1.00000000" edges="29255886#5 29255886#1 29255886#1-AddedOffRampEdge 29255886#2 164931287#2 164931276#0 164931276#1 164931279#1 326986972 326987774#2 326987774#3 326987774#4 326987774#5"/>
        </routeDistribution>
    </vehicle>
    <vehicle id="12" depart="12.00">
        <routeDistribution last="0">
            <route cost="28.78" probability="1.00000000" edges="64970026 76609190#7 76609190#8 76609190#9"/>
        </routeDistribution>
    </vehicle>
    <vehicle id="14" depart="14.00">
        <routeDistribution last="0">
            <route cost="122.20" probability="1.00000000" edges="29255886#5 29255886#1 29255886#1-AddedOffRampEdge 29255886#2 164931287#2 164931287#3 164931287#4 -164931284#1"/>
        </routeDistribution>
    </vehicle>
    <vehicle id="15" depart="15.00">
        <routeDistribution last="0">
            <route cost="51.16" probability="1.00000000" edges="29255886#5"/>
        </routeDistribution>
    </vehicle>
    <vehicle id="16" depart="16.00">
        <routeDistribution last="0">
            <route cost="83.21" probability="1.00000000" edges="29255886#4 29255886#5 29255886#1 29255886#1-AddedOffRampEdge 29255886#2 164931287#2 164931287#3 164931287#4"/>
        </routeDistribution>
    </vehicle>
    <vehicle id="25" depart="25.00">
        <routeDistribution last="0">
            <route cost="44.61" probability="1.00000000" edges="132319466 326982787#1 132319159#0 132319159#1 132319159#2 326982787#6 76609190#1 53349605 29255885#4 45437501#0"/>
        </routeDistribution>
    </vehicle>
    <vehicle id="34" depart="34.00">
        <routeDistribution last="0">
            <route cost="116.79" probability="1.00000000" edges="45774109#1 236702555 29255886#1 29255886#1-AddedOffRampEdge 29255886#2 29255886#3 29255886#4-AddedOnRampEdge 29255886#4"/>
        </routeDistribution>
    </vehicle>
    <vehicle id="39" depart="39.00">
        <routeDistribution last="0">
            <route cost="80.32" probability="1.00000000" edges="-45774276#0 45774276#0 45774276#1 164931618 164931619"/>
        </routeDistribution>
    </vehicle>
    <vehicle id="42" depart="42.00">
        <routeDistribution last="0">
            <route cost="111.60" probability="1.00000000" edges="-56651866#0 56651865#2"/>
        </routeDistribution>
    </vehicle>
    <vehicle id="44" depart="44.00">
        <routeDistribution last="0">
            <route cost="38.34" probability="1.00000000" edges="45774109#1"/>
        </routeDistribution>
    </vehicle>
    <vehicle id="45" depart="45.00">
        <routeDistribution last="0">
            <route cost="137.57" probability="1.00000000" edges="29255886#1 29255886#1-AddedOffRampEdge 29255886#2 29255886#3 29255886#4-AddedOnRampEdge 29255886#4 45774276#0 45774276#1 45774276#2 45774109#1 45774109#2"/>
        </routeDistribution>
    </vehicle>
    <vehicle id="46" depart="46.00">
        <routeDistribution last="0">
            <route cost="20.25" probability="1.00000000" edges="-132319159#1 -132319159#0 132319159#0"/>
        </routeDistribution>
    </vehicle>
    <vehicle id="47" depart="47.00">
        <routeDistribution last="0">
            <route cost="98.47" probability="1.00000000" edges="56651865#2 56651866#1 56651864#1 56651864#2 -47584424 47584422#1"/>
        </routeDistribution>
    </vehicle>
    <vehicle id="57" depart="57.00">
        <routeDistribution last="0">
            <route cost="61.58" probability="1.00000000" edges="29255886#5 29255886#1"/>
        </routeDistribution>
    </vehicle>
    <vehicle id="66" depart="66.00">
        <routeDistribution last="0">
            <route cost="41.57" probability="1.00000000" edges="45774109#2"/>
        </routeDistribution>
    </vehicle>
    <vehicle id="72" depart="72.00">
        <routeDistribution last="0">
            <route cost="177.37" probability="1.00000000" edges="-236702555 236702555 29255886#1 29255886#1-AddedOffRampEdge 29255886#2 164931287#2 164931276#0 164931276#1 164931279#1 326986972 -326986972"/>
        </routeDistribution>
    </vehicle>
    <vehicle id="73" depart="73.00">
        <routeDistribution last="0">
            <route cost="46.78" probability="1.00000000" edges="29255885#3 -53349605 -76609190#1 -326982787#6 -132319159#2 -132319159#1 132318144#1 -132318144#1"/>
        </routeDistribution>
    </vehicle>
    <vehicle id="79" depart="79.00">
        <routeDistribution last="0">
            <route cost="48.36" probability="1.00000000" edges="47584426#0 -47584425#0 56651864#1 56651864#2 -56651864#2"/>
        </routeDistribution>
    </vehicle>
    <vehicle id="80" depart="80.00">
        <routeDistribution last="0">
            <route cost="107.34" probability="1.00000000" edges="45774109#1 236702555 29255886#1 29255886#1-AddedOffRampEdge 29255886#2 29255886#3 29255886#4-AddedOnRampEdge"/>
        </routeDistribution>
    </vehicle>
    <vehicle id="85" depart="85.00">
        <routeDistribution last="0">
            <route cost="187.85" probability="1.00000000" edges="326987774#0 326987774#1 -326986972 45774287#0 164931291#1 164931287#1 29255886#3 29255886#4-AddedOnRampEdge 29255886#4 45774276#0 45774276#1 45774276#2 45774109#1 45774109#2"/>
        </routeDistribution>
    </vehicle>
    <vehicle id="88" depart="88.00">
        <routeDistribution last="0">
            <route cost="46.92" probability="1.00000000" edges="-76609190#7 -76609190#6 -132319465 132319466 326982787#1 132319159#0 132319159#1 132319159#2 -326982787#5 326982787#5"/>
        </routeDistribution>
    </vehicle>
    <vehicle id="89" depart="89.00">
        <routeDistribution last="0">
            <route cost="66.19" probability="1.00000000" edges="-132318144#0 132326603 76609190#5 76609190#6 76609190#7 76609190#8 -76609185#0 29255885#2 29255885#3"/>
        </routeDistribution>
    </vehicle>
    <vehicle id="96" depart="96.00">
        <routeDistribution last="0">
            <route cost="41.57" probability="1.00000000" edges="45774109#2"/>
        </routeDistribution>
    </vehicle>
    <vehicle id="98" depart="98.00">
        <routeDistribution last="0">
            <route cost="55.43" probability="1.00000000" edges="-56651866#0"/>
        </routeDistribution>
    </vehicle>
    <vehicle id="102" depart="102.00">
        <routeDistribution last="0">
            <route cost="69.22" probability="1.00000000" edges="-132319466 132319466 326982787#1 132319159#0 132319159#1 132319159#2 -326982787#5 -326982787#4 -326982787#3"/>
        </routeDistribution>
    </vehicle>
    <vehicle id="103" depart="103.00">
        <routeDistribution last="0">
            <route cost="104.81" probability="1.00000000" edges="164931617 164931619 45774276#1 45774276#2 45774109#1 45774109#2"/>
        </routeDistribution>
    </vehicle>
    <vehicle id="104" depart="104.00">
        <routeDistribution last="0">
            <route cost="184.88" probability="1.00000000" edges="25004903#2 164931279#0 164931279#1 45774287#0 164931291#1 164931287#1 29255886#3 29255886#4-AddedOnRampEdge 29255886#4 45774276#0 45774276#1 45774276#2 45774109#1 45774109#2"/>
        </routeDistribution>
    </vehicle>
    <vehicle id="111" depart="111.00">
        <routeDistribution last="0">
            <route cost="83.41" probability="1.00000000" edges="29255886#2 29255886#3 29255886#4-AddedOnRampEdge 29255886#4 45774276#0 45774276#1 45774276#2 45774109#1"/>
        </routeDistribution>
    </vehicle>
    <vehicle id="112" depart="112.00">
        <routeDistribution last="0">
            <route cost="48.82" probability="1.00000000" edges="-45437501#2 45437501#2 45437501#3 29255885#1 76609185#0 -76609190#8 -76609190#7 -76609190#6 -76609190#5"/>
        </routeDistribution>
    </vehicle>
    <vehicle id="113" depart="113.00">
        <routeDistribution last="0">
            <route cost="82.30" probability="1.00000000" edges="326986985 326986982 326986977#1 326987774#0 326987774#1 -326986972"/>
        </routeDistribution>
    </vehicle>
    <vehicle id="115" depart="115.00">
        <routeDistribution last="0">
            <route cost="213.34" probability="1.00000000" edges="45774109#2 -45774276#2 -45774276#1 -45774276#0 29255886#5 29255886#1 29255886#1-AddedOffRampEdge 29255886#2 164931287#2 164931276#0 164931276#1 164931279#1 326986972 326987774#2 326987774#3 326986982 326986977#1 326987774#0"/>
        </routeDistribution>
    </vehicle>
    <vehicle id="119" depart="119.00">
        <routeDistribution last="0">
            <route cost="111.00" probability="1.00000000" edges="-164931284#1 164931284#1 164931279#0 164931279#1 45774287#0"/>
        </routeDistribution>
    </vehicle>
    <vehicle id="120" depart="120.00">
        <routeDistribution last="0">
            <route cost="35.10" probability="1.00000000" edges="-47584530 56651864#1 56651864#2 56651863 -56651863"/>
        </routeDistribution>
    </vehicle>
    <vehicle id="122" depart="122.00">
        <routeDistribution last="0">
            <route cost="128.97" probability="1.00000000" edges="45774109#2 -45774276#2 -45774276#1 -45774276#0 29255886#5 29255886#1"/>
        </routeDistribution>
    </vehicle>
    <vehicle id="127" depart="127.00">
        <routeDistribution last="0">
            <route cost="37.19" probability="1.00000000" edges="76609190#4 -76609190#4 -76609190#3 -76609190#2 53349605 29255885#4 29255885#5"/>
        </routeDistribution>
    </vehicle>
    <vehicle id="130" depart="130.00">
        <routeDistribution last="0">
            <route cost="191.33" probability="1.00000000" edges="-164931284#1 164931284#1 164931279#0 164931279#1 45774287#0 164931291#1 164931287#1 29255886#3 29255886#4-AddedOnRampEdge 29255886#4 45774276#0 45774276#1 45774276#2 45774109#1"/>
        </routeDistribution>
    </vehicle>
    <vehicle id="134" depart="134.00">
        <routeDistribution last="0">
            <route cost="118.56" probability="1.00000000" edges="45774109#2 -45774276#2 -45774276#1 -45774276#0 29255886#5"/>
        </routeDistribution>
    </vehicle>
    <vehicle id="137" depart="137.00">
        <routeDistribution last="0">
            <route cost="58.93" probability="1.00000000" edges="76609190#9 326982788 326982787#0 326982787#1 326982787#2 326982787#3"/>
        </routeDistribution>
    </vehicle>
    <vehicle id="139" depart="139.00">
        <routeDistribution last="0">
            <route cost="218.28" probability="1.00000000" edges="326987774#5 326987774#0 326987774#1 -326986972 45774287#0 164931291#1 164931287#1 29255886#3 29255886#4-AddedOnRampEdge 29255886#4 29255886#5 -236702555"/>
        </routeDistribution>
    </vehicle>
    <vehicle id="144" depart="144.00">
        <routeDistribution last="0">
            <route cost="143.31" probability="1.00000000" edges="25004903#2 164931279#0 164931279#1 45774287#0 164931291#1 164931287#1 29255886#3 29255886#4-AddedOnRampEdge 29255886#4 45774276#0 45774276#1 45774276#2 45774109#1"/>
        </routeDistribution>
    </vehicle>
    <vehicle id="145" depart="145.00">
        <routeDistribution last="0">
            <route cost="31.90" probability="1.00000000" edges="29255885#3 -53349605 -76609190#1 -326982787#6 -132319159#2 132319159#2"/>
        </routeDistribution>
    </vehicle>
    <vehicle id="146" depart="146.00">
        <routeDistribution last="0">
            <route cost="130.04" probability="1.00000000" edges="25004903#2 164931279#0 164931279#1 45774287#0 164931291#1 164931287#1 29255886#3 29255886#4-AddedOnRampEdge 29255886#4 29255886#5"/>
        </routeDistribution>
    </vehicle>
    <vehicle id="151" depart="151.00">
        <routeDistribution last="0">
            <route cost="43.42" probability="1.00000000" edges="-64970026 76609190#8 -76609185#0 29255885#2 29255885#3"/>
        </routeDistribution>
    </vehicle>
    <vehicle id="158" depart="158.00">
        <routeDistribution last="0">
            <route cost="191.33" probability="1.00000000" edges="-164931284#1 164931284#1 164931279#0 164931279#1 45774287#0 164931291#1 164931287#1 29255886#3 29255886#4-AddedOnRampEdge 29255886#4 45774276#0 45774276#1 45774276#2 45774109#1"/>
        </routeDistribution>
    </vehicle>
    <vehicle id="166" depart="166.00">
        <routeDistribution last="0">
            <route cost="138.81" probability="1.00000000" edges="29255886#5 -236702555 45774109#2"/>
        </routeDistribution>
    </vehicle>
    <vehicle id="168" depart="168.00">
        <routeDistribution last="0">
            <route cost="122.48" probability="1.00000000" edges="-326986972 45774287#0 164931291#1 164931287#1 29255886#3 29255886#4-AddedOnRampEdge 29255886#4 45774276#0 45774276#1 45774276#2 45774109#1"/>
        </routeDistribution>
    </vehicle>
    <vehicle id="170" depart="170.00">
        <routeDistribution last="0">
            <route cost="56.78" probability="1.00000000" edges="29255885#3 -53349605 -76609190#1 -326982787#6 -132319159#2 -132318144#3 -132318144#2"/>
        </routeDistribution>
    </vehicle>
    <vehicle id="173" depart="173.00">
        <routeDistribution last="0">
            <route cost="34.45" probability="1.00000000" edges="-45437501#3 45437501#3 29255885#1 29255885#2"/>
        </routeDistribution>
    </vehicle>
    <vehicle id="174" depart="174.00">
        <routeDistribution last="0">
            <route cost="31.46" probability="1.00000000" edges="47584422#1 -56651863 -56651864#2 -56651864#1 56651864#1"/>
        </routeDistribution>
    </vehicle>
    <vehicle id="176" depart="176.00">
        <routeDistribution last="0">
            <route cost="51.16" probability="1.00000000" edges="29255886#5"/>
        </routeDistribution>
    </vehicle>
    <vehicle id="179" depart="179.00">
        <routeDistribution last="0">
            <route cost="64.43" probability="1.00000000" edges="45774276#0 45774276#1 45774276#2 45774109#1"/>
        </routeDistribution>
    </vehicle>
    <vehicle id="180" depart="180.00">
        <routeDistribution last="0">
            <route cost="130.30" probability="1.00000000" edges="29255886#2 29255886#3 29255886#4-AddedOnRampEdge 29255886#4 45774276#0 45774276#1 45774276#2 45774109#1 236702555"/>
        </routeDistribution>
    </vehicle>
    <vehicle id="181" depart="181.00">
        <routeDistribution last="0">
            <route cost="118.56" probability="1.00000000" edges="45774109#2 -45774276#2 -45774276#1 -45774276#0 29255886#5"/>
        </routeDistribution>
    </vehicle>
    <vehicle id="183" depart="183.00">
        <routeDistribution last="0">
            <route cost="140.67" probability="1.00000000" edges="45774109#2 -45774276#2 -45774276#1 -45774276#0 29255886#5 29255886#1 29255886#1-AddedOffRampEdge 29255886#2 29255886#3 29255886#4-AddedOnRampEdge"/>
        </routeDistribution>
    </vehicle>
    <vehicle id="187" depart="187.00">
        <routeDistribution last="0">
            <route cost="202.96" probability="1.00000000" edges="45774109#2 -45774276#2 -45774276#1 -45774276#0 29255886#5 29255886#1 29255886#1-AddedOffRampEdge 29255886#2 164931287#2 164931276#0 164931276#1 164931279#1 326986972 -326986972"/>
        </routeDistribution>
    </vehicle>
    <vehicle id="190" depart="190.00">
        <routeDistribution last="0">
            <route cost="23.54" probability="1.00000000" edges="47584426#1 56651865#1 -56651865#1"/>
        </routeDistribution>
    </vehicle>
    <vehicle id="195" depart="195.00">
        <routeDistribution last="0">
            <route cost="163.72" probability="1.00000000" edges="-249243234#1 -249243234#0 164931284#1 164931279#0 164931279#1 45774287#0 164931291#1 164931287#1 29255886#3 29255886#4-AddedOnRampEdge 29255886#4 29255886#5 29255886#1"/>
        </routeDistribution>
    </vehicle>
    <vehicle id="196" depart="196.00">
        <routeDistribution last="0">
            <route cost="50.78" probability="1.00000000" edges="132318144#3 -132319159#1 -132319159#0 -326982787#1 -132319466 132319465 76609190#6 -76609190#6"/>
        </routeDistribution>
    </vehicle>
    <vehicle id="199" depart="199.00">
        <routeDistribution last="0">
            <route cost="45.56" probability="1.00000000" edges="56651865#0 -56651865#0"/>
        </routeDistribution>
    </vehicle>
    <vehicle id="203" depart="203.00">
        <routeDistribution last="0">
            <route cost="56.02" probability="1.00000000" edges="326982787#3 -326982787#3"/>
        </routeDistribution>
    </vehicle>
    <vehicle id="205" depart="205.00">
        <routeDistribution last="0">
            <route cost="108.10" probability="1.00000000" edges="29255886#5 29255886#1 29255886#1-AddedOffRampEdge 29255886#2 29255886#3 29255886#4-AddedOnRampEdge 29255886#4 45774276#0"/>
        </routeDistribution>
    </vehicle>
    <vehicle id="210" depart="210.00">
        <routeDistribution last="0">
            <route cost="51.74" probability="1.00000000" edges="29255885#5 29255885#1 76609185#0 76609185#1 132319466 326982787#1 326982787#2 -132319160 132319160"/>
        </routeDistribution>
    </vehicle>
    <vehicle id="212" depart="212.00">
        <routeDistribution last="0">
            <route cost="48.29" probability="1.00000000" edges="56651865#1 -56651865#1 -56651865#0 -47584422#1"/>
        </routeDistribution>
    </vehicle>
    <vehicle id="217" depart="217.00">
        <routeDistribution last="0">
            <route cost="71.81" probability="1.00000000" edges="29255886#2 164931287#2 164931276#0 164931276#1 164931279#1 326986972 -326986972"/>
        </routeDistribution>
    </vehicle>
    <vehicle id="219" depart="219.00">
        <routeDistribution last="0">
            <route cost="198.38" probability="1.00000000" edges="45774109#2 -45774276#2 -45774276#1 -45774276#0 29255886#5 29255886#1 29255886#1-AddedOffRampEdge 29255886#2 164931287#2 164931287#3 164931287#4 -164931284#1 249243234#0"/>
        </routeDistribution>
    </vehicle>
    <vehicle id="221" depart="221.00">
        <routeDistribution last="0">
            <route cost="64.43" probability="1.00000000" edges="45774276#0 45774276#1 45774276#2 45774109#1"/>
        </routeDistribution>
    </vehicle>
    <vehicle id="230" depart="230.00">
        <routeDistribution last="0">
            <route cost="143.31" probability="1.00000000" edges="25004903#2 164931279#0 164931279#1 45774287#0 164931291#1 164931287#1 29255886#3 29255886#4-AddedOnRampEdge 29255886#4 45774276#0 45774276#1 45774276#2 45774109#1"/>
        </routeDistribution>
    </vehicle>
    <vehicle id="233" depart="233.00">
        <routeDistribution last="0">
            <route cost="73.88" probability="1.00000000" edges="29255886#4 45774276#0 45774276#1 45774276#2 45774109#1"/>
        </routeDistribution>
    </vehicle>
    <vehicle id="236" depart="236.00">
        <routeDistribution last="0">
            <route cost="91.57" probability="1.00000000" edges="132318144#1 -132318144#1 132319159#1 132319159#2 326982787#6 76609190#1 53349605 29255885#4 45437501#0 45437501#1 164931616 64967974"/>
        </routeDistribution>
    </vehicle>
    <vehicle id="238" depart="238.00">
        <routeDistribution last="0">
            <route cost="52.96" probability="1.00000000" edges="132318149 -132318144#2 -132318144#1 -132318144#0 132326603 -132326603"/>
        </routeDistribution>
    </vehicle>
    <vehicle id="240" depart="240.00">
        <routeDistribution last="0">
            <route cost="142.89" probability="1.00000000" edges="164931284#1 164931279#0 164931279#1 45774287#0 164931291#1 164931287#1 29255886#3 29255886#4-AddedOnRampEdge 29255886#4 45774276#0 45774276#1 45774276#2 45774109#1"/>
        </routeDistribution>
    </vehicle>
    <vehicle id="241" depart="241.00">
        <routeDistribution last="0">
            <route cost="60.62" probability="1.00000000" edges="29255886#4 29255886#5"/>
        </routeDistribution>
    </vehicle>
    <vehicle id="243" depart="243.00">
        <routeDistribution last="0">
            <route cost="136.15" probability="1.00000000" edges="-47584080 -164931290#0 164931287#0 164931287#1 29255886#3 29255886#4-AddedOnRampEdge 29255886#4 45774276#0 45774276#1 45774276#2 45774109#1 236702555"/>
        </routeDistribution>
    </vehicle>
    <vehicle id="247" depart="247.00">
        <routeDistribution last="0">
            <route cost="118.56" probability="1.00000000" edges="45774109#2 -45774276#2 -45774276#1 -45774276#0 29255886#5"/>
        </routeDistribution>
    </vehicle>
    <vehicle id="252" depart="252.00">
        <routeDistribution last="0">
            <route cost="118.56" probability="1.00000000" edges="45774109#2 -45774276#2 -45774276#1 -45774276#0 29255886#5"/>
        </routeDistribution>
    </vehicle>
    <vehicle id="253" depart="253.00">
        <routeDistribution last="0">
            <route cost="40.49" probability="1.00000000" edges="76609185#0 -76609185#0 29255885#2 29255885#3"/>
        </routeDistribution>
    </vehicle>
    <vehicle id="255" depart="255.00">
        <routeDistribution last="0">
            <route cost="56.17" probability="1.00000000" edges="56651865#2"/>
        </routeDistribution>
    </vehicle>
    <vehicle id="258" depart="258.00">
        <routeDistribution last="0">
            <route cost="196.15" probability="1.00000000" edges="326986972 -326986972 45774287#0 164931291#1 164931287#1 29255886#3 29255886#4-AddedOnRampEdge 29255886#4 45774276#0 45774276#1 45774276#2 45774109#1 45774109#2"/>
        </routeDistribution>
    </vehicle>
    <vehicle id="259" depart="259.00">
        <routeDistribution last="0">
            <route cost="101.45" probability="1.00000000" edges="45774276#0 -45774276#0 29255886#5"/>
        </routeDistribution>
    </vehicle>
    <vehicle id="260" depart="260.00">
        <routeDistribution last="0">
            <route cost="72.70" probability="1.00000000" edges="-326982787#3 -326982787#2 -326982787#1 -132319466 -132326607 -76609185#0 29255885#2"/>
        </routeDistribution>
    </vehicle>
    <vehicle id="261" depart="261.00">
        <routeDistribution last="0">
            <route cost="103.70" probability="1.00000000" edges="-47584422#0 56651864#2 56651863 56651865#0"/>
        </routeDistribution>
    </vehicle>
    <vehicle id="263" depart="263.00">
        <routeDistribution last="0">
            <route cost="74.28" probability="1.00000000" edges="29255885#1 76609185#0 76609185#1 132319466 326982787#1 326982787#2 -132319160 132318144#2 132318144#3"/>
        </routeDistribution>
    </vehicle>
    <vehicle id="266" depart="266.00">
        <routeDistribution last="0">
            <route cost="32.87" probability="1.00000000" edges="132318144#3 132319159#2 -326982787#5 -326982787#4 326982787#4"/>
        </routeDistribution>
    </vehicle>
    <vehicle id="270" depart="270.00">
        <routeDistribution last="0">
            <route cost="38.34" probability="1.00000000" edges="45774109#1"/>
        </routeDistribution>
    </vehicle>
    <vehicle id="271" depart="271.00">
        <routeDistribution last="0">
            <route cost="89.35" probability="1.00000000" edges="-45774276#0 45774276#0 45774276#1 45774276#2 45774109#1"/>
        </routeDistribution>
    </vehicle>
    <vehicle id="277" depart="277.00">
        <routeDistribution last="0">
            <route cost="17.19" probability="1.00000000" edges="-76609190#1 76609190#1 53349605 29255885#4 29255885#5 -45437501#3"/>
        </routeDistribution>
    </vehicle>
    <vehicle id="278" depart="278.00">
        <routeDistribution last="0">
            <route cost="55.43" probability="1.00000000" edges="-56651866#0"/>
        </routeDistribution>
    </vehicle>
    <vehicle id="280" depart="280.00">
        <routeDistribution last="0">
            <route cost="68.39" probability="1.00000000" edges="56640798 47584424"/>
        </routeDistribution>
    </vehicle>
    <vehicle id="281" depart="281.00">
        <routeDistribution last="0">
            <route cost="98.11" probability="1.00000000" edges="326987774#5 326987774#0 326987774#1 -326986972 164931285#0"/>
        </routeDistribution>
    </vehicle>
    <vehicle id="282" depart="282.00">
        <routeDistribution last="0">
            <route cost="90.53" probability="1.00000000" edges="-249243234#1 -249243234#0 164931284#1 164931279#0 164931279#1 45774287#0 164931291#1 164931287#1 29255886#3"/>
        </routeDistribution>
    </vehicle>
    <vehicle id="283" depart="283.00">
        <routeDistribution last="0">
            <route cost="61.58" probability="1.00000000" edges="29255886#5 29255886#1"/>
        </routeDistribution>
    </vehicle>
    <vehicle id="289" depart="289.00">
        <routeDistribution last="0">
            <route cost="77.21" probability="1.00000000" edges="-76609185#0 29255885#2 29255885#3 -53349605 -76609190#1 -326982787#6 -326982787#5 -326982787#4 -326982787#3"/>
        </routeDistribution>
    </vehicle>
    <vehicle id="294" depart="294.00">
        <routeDistribution last="0">
            <route cost="147.16" probability="1.00000000" edges="29255886#5 29255886#1 29255886#1-AddedOffRampEdge 29255886#2 29255886#3 29255886#4-AddedOnRampEdge 29255886#4 45774276#0 45774276#1 45774276#2 45774109#1"/>
        </routeDistribution>
    </vehicle>
    <vehicle id="295" depart="295.00">
        <routeDistribution last="0">
            <route cost="57.16" probability="1.00000000" edges="76609190#2 76609190#3 132318149 -132318144#2"/>
        </routeDistribution>
    </vehicle>
    <vehicle id="296" depart="296.00">
        <routeDistribution last="0">
            <route cost="128.75" probability="1.00000000" edges="164931284#1 164931279#0 164931279#1 45774287#0 164931291#1 164931287#1 29255886#3 29255886#4-AddedOnRampEdge 29255886#4 45774276#0 -45774276#0"/>
        </routeDistribution>
    </vehicle>
    <vehicle id="299" depart="299.00">
        <routeDistribution last="0">
            <route cost="127.15" probability="1.00000000" edges="29255886#1-AddedOffRampEdge 29255886#2 29255886#3 29255886#4-AddedOnRampEdge 29255886#4 45774276#0 45774276#1 45774276#2 45774109#1 45774109#2"/>
        </routeDistribution>
    </vehicle>
    <vehicle id="302" depart="302.00">
        <routeDistribution last="0">
            <route cost="122.86" probability="1.00000000" edges="-236702555 236702555 29255886#1 29255886#1-AddedOffRampEdge 164931291#0"/>
        </routeDistribution>
    </vehicle>
    <vehicle id="303" depart="303.00">
        <routeDistribution last="0">
            <route cost="82.73" probability="1.00000000" edges="29255886#1 29255886#1-AddedOffRampEdge 29255886#2 29255886#3 29255886#4-AddedOnRampEdge 29255886#4 29255886#5"/>
        </routeDistribution>
    </vehicle>
    <vehicle id="304" depart="304.00">
        <routeDistribution last="0">
            <route cost="125.98" probability="1.00000000" edges="-236702555 45774109#2 45774109#1"/>
        </routeDistribution>
    </vehicle>
    <vehicle id="308" depart="308.00">
        <routeDistribution last="0">
            <route cost="82.73" probability="1.00000000" edges="29255886#5 29255886#1 29255886#1-AddedOffRampEdge 29255886#2 29255886#3 29255886#4-AddedOnRampEdge 29255886#4"/>
        </routeDistribution>
    </vehicle>
    <vehicle id="309" depart="309.00">
        <routeDistribution last="0">
            <route cost="79.91" probability="1.00000000" edges="45774109#2 45774109#1"/>
        </routeDistribution>
    </vehicle>
    <vehicle id="313" depart="313.00">
        <routeDistribution last="0">
            <route cost="87.06" probability="1.00000000" edges="326982787#3 326982787#4 326982787#5 326982787#6 76609190#1 53349605 29255885#4 29255885#5 29255885#1 29255885#2 29255885#3"/>
        </routeDistribution>
    </vehicle>
    <vehicle id="321" depart="321.00">
        <routeDistribution last="0">
            <route cost="74.98" probability="1.00000000" edges="-56651866#0 -56651865#1 -47584530"/>
        </routeDistribution>
    </vehicle>
    <vehicle id="322" depart="322.00">
        <routeDistribution last="0">