<?xml version="1.0"?>
<!-- generated on 2016-03-22 15:26:39.032000 by $Id: route2trips.py 18237 2015-04-20 10:43:52Z namdre $ -->
<trips>
    <vType vClass="passenger" id="passenger"/>
    <trip id="veh0" depart="0.00" departLane="best" from="326982787#6" to="-132319159#0" type="passenger"/>
    <trip id="veh28" depart="143.11" departLane="best" from="-45437501#1" to="-76609190#0" type="passenger"/>
    <trip id="veh33" depart="168.66" departLane="best" from="-64515568#2" to="-64515568#0" type="passenger"/>
    <trip id="veh52" depart="265.77" departLane="best" from="164931291#0" to="-45774276#1" type="passenger"/>
    <trip id="veh57" depart="291.32" departLane="best" from="-132318149" to="76609190#4" type="passenger"/>
    <trip id="veh60" depart="306.65" departLane="best" from="76609190#0" to="76609190#8" type="passenger"/>
    <trip id="veh105" depart="536.65" departLane="best" from="29255886#2" to="29255886#3" type="passenger"/>
    <trip id="veh113" depart="577.53" departLane="best" from="-53349605" to="76609190#5" type="passenger"/>
    <trip id="veh117" depart="597.98" departLane="best" from="45437501#1" to="-132318144#1" type="passenger"/>
    <trip id="veh132" depart="674.64" departLane="best" from="-326982787#6" to="-326982787#1" type="passenger"/>
    <trip id="veh149" depart="761.53" departLane="best" from="326982788" to="-76609190#4" type="passenger"/>
    <trip id="veh173" depart="884.19" departLane="best" from="132326603" to="64969200" type="passenger"/>
    <trip id="veh184" depart="940.41" departLane="best" from="45437501#2" to="-132318144#1" type="passenger"/>
    <trip id="veh191" depart="976.19" departLane="best" from="53349605" to="132319160" type="passenger"/>
    <trip id="veh195" depart="996.63" departLane="best" from="-53278515" to="326932214" type="passenger"/>
    <trip id="veh215" depart="1098.85" departLane="best" from="-132319159#1" to="326932214" type="passenger"/>
    <trip id="veh223" depart="1139.73" departLane="best" from="-132318149" to="-326982788" type="passenger"/>
    <trip id="veh224" depart="1144.85" departLane="best" from="-326982787#0" to="326982787#3" type="passenger"/>
    <trip id="veh240" depart="1226.62" departLane="best" from="-56651864#0" to="56640798" type="passenger"/>
    <trip id="veh249" depart="1272.62" departLane="best" from="-132318144#2" to="76609190#8" type="passenger"/>
    <trip id="veh255" depart="1303.28" departLane="best" from="29255885#5" to="132318144#1" type="passenger"/>
    <trip id="veh270" depart="1379.95" departLane="best" from="76609185#0" to="132319159#0" type="passenger"/>
    <trip id="veh277" depart="1415.72" departLane="best" from="-132326606" to="-326982787#6" type="passenger"/>
    <trip id="veh287" depart="1466.83" departLane="best" from="-47584422#0" to="-47584426#1" type="passenger"/>
    <trip id="veh295" depart="1507.72" departLane="best" from="45437501#3" to="76609190#5" type="passenger"/>
    <trip id="veh296" depart="1512.83" departLane="best" from="-97673852#5" to="164928258" type="passenger"/>
    <trip id="veh297" depart="1517.94" departLane="best" from="45437501#0" to="76609185#0" type="passenger"/>
    <trip id="veh307" depart="1569.05" departLane="best" from="81177496#0" to="97673852#5" type="passenger"/>
    <trip id="veh326" depart="1666.16" departLane="best" from="132318144#2" to="45437501#2" type="passenger"/>
    <trip id="veh358" depart="1829.71" departLane="best" from="45437501#2" to="-326982788" type="passenger"/>
    <trip id="veh365" depart="1865.48" departLane="best" from="76609185#1" to="-132319160" type="passenger"/>
    <trip id="veh372" depart="1901.26" departLane="best" from="-132319466" to="53278515" type="passenger"/>
    <trip id="veh375" depart="1916.59" departLane="best" from="29255885#2" to="53278515" type="passenger"/>
    <trip id="veh378" depart="1931.93" departLane="best" from="-53278515" to="76609185#1" type="passenger"/>
    <trip id="veh381" depart="1947.26" departLane="best" from="-132318144#2" to="53349605" type="passenger"/>
    <trip id="veh396" depart="2023.92" departLane="best" from="45774276#0" to="45774276#0" type="passenger"/>
    <trip id="veh416" depart="2126.14" departLane="best" from="29255885#1" to="76609185#1" type="passenger"/>
    <trip id="veh420" depart="2146.58" departLane="best" from="-326982787#4" to="76609190#8" type="passenger"/>
    <trip id="veh434" depart="2218.14" departLane="best" from="-76609185#0" to="-76609190#4" type="passenger"/>
    <trip id="veh442" depart="2259.02" departLane="best" from="-47584422#0" to="-47584530" type="passenger"/>
    <trip id="veh445" depart="2274.36" departLane="best" from="-326982787#5" to="-326982787#1" type="passenger"/>
    <trip id="veh447" depart="2284.58" departLane="best" from="45437501#3" to="-132319159#1" type="passenger"/>
    <trip id="veh468" depart="2391.91" departLane="best" from="-76609190#3" to="-326982788" type="passenger"/>
    <trip id="veh472" depart="2412.35" departLane="best" from="29255886#1" to="164931291#0" type="passenger"/>
    <trip id="veh485" depart="2478.79" departLane="best" from="-76609190#9" to="-326982787#4" type="passenger"/>
    <trip id="veh492" depart="2514.57" departLane="best" from="45437501#3" to="132318149" type="passenger"/>
    <trip id="veh498" depart="2545.24" departLane="best" from="-76609190#8" to="29255885#5" type="passenger"/>
    <trip id="veh509" depart="2601.46" departLane="best" from="-326932214" to="-132318149" type="passenger"/>
    <trip id="veh517" depart="2642.34" departLane="best" from="-45437501#2" to="132319465" type="passenger"/>
    <trip id="veh524" depart="2678.12" departLane="best" from="29255885#1" to="326932214" type="passenger"/>
    <trip id="veh527" depart="2693.45" departLane="best" from="-64515568#2" to="-64515568#1" type="passenger"/>
    <trip id="veh537" depart="2744.56" departLane="best" from="-326932214" to="64969200" type="passenger"/>
    <trip id="veh541" depart="2765.01" departLane="best" from="132318144#3" to="132326606" type="passenger"/>
    <trip id="veh542" depart="2770.12" departLane="best" from="-45437501#0" to="-76609190#0" type="passenger"/>
    <trip id="veh553" depart="2826.34" departLane="best" from="-76609190#7" to="29255885#4" type="passenger"/>
    <trip id="veh566" depart="2892.78" departLane="best" from="-76609190#4" to="-45437501#1" type="passenger"/>
    <trip id="veh569" depart="2908.11" departLane="best" from="132318144#2" to="-76609190#7" type="passenger"/>
    <trip id="veh576" depart="2943.89" departLane="best" from="81177496#0" to="97673852#2" type="passenger"/>
    <trip id="veh581" depart="2969.44" departLane="best" from="-53278515" to="326932214" type="passenger"/>
    <trip id="veh584" depart="2984.78" departLane="best" from="132318144#2" to="76609190#8" type="passenger"/>
    <trip id="veh587" depart="3000.11" departLane="best" from="-132326606" to="132319159#2" type="passenger"/>
    <trip id="veh600" depart="3066.55" departLane="best" from="-53278515" to="-76609190#8" type="passenger"/>
    <trip id="veh605" depart="3092.10" departLane="best" from="-76609190#7" to="132318144#0" type="passenger"/>
    <trip id="veh607" depart="3102.33" departLane="best" from="-53278515" to="-132318144#3" type="passenger"/>
    <trip id="veh612" depart="3127.88" departLane="best" from="132319465" to="45437501#1" type="passenger"/>
    <trip id="veh619" depart="3163.66" departLane="best" from="56651866#1" to="-47584422#1" type="passenger"/>
    <trip id="veh620" depart="3168.77" departLane="best" from="-64970026" to="53278515" type="passenger"/>
    <trip id="veh622" depart="3178.99" departLane="best" from="-326982787#0" to="-76609190#0" type="passenger"/>
    <trip id="veh632" depart="3230.10" departLane="best" from="-64969200" to="-132319466" type="passenger"/>
    <trip id="veh633" depart="3235.21" departLane="best" from="76609185#1" to="-64969200" type="passenger"/>
    <trip id="veh665" depart="3398.76" departLane="best" from="132319159#0" to="326982787#6" type="passenger"/>
    <trip id="veh667" depart="3408.98" departLane="best" from="132318144#1" to="76609185#0" type="passenger"/>
    <trip id="veh668" depart="3414.09" departLane="best" from="-326982788" to="-45437501#2" type="passenger"/>
    <trip id="veh672" depart="3434.54" departLane="best" from="-53278515" to="326932214" type="passenger"/>
    <trip id="veh678" depart="3465.20" departLane="best" from="-132319159#1" to="-132319466" type="passenger"/>
    <trip id="veh682" depart="3485.64" departLane="best" from="164931291#0" to="29255886#4-AddedOnRampEdge" type="passenger"/>
    <trip id="veh693" depart="3541.86" departLane="best" from="-56651863" to="-56651865#1" type="passenger"/>
    <trip id="veh704" depart="3598.09" departLane="best" from="-64969200" to="-132326603" type="passenger"/>
</trips>
