<?xml version="1.0" encoding="UTF-8"?>

<!-- generated on 4/17/2016 9:56:45 PM by Netedit Version 0.25.0
<?xml version="1.0" encoding="UTF-8"?>

<configuration xmlns:xsi="http://www.w3.org/2001/XMLSchema-instance" xsi:noNamespaceSchemaLocation="http://sumo.dlr.de/xsd/netedit.exeConfiguration.xsd">

    <input>
        <sumo-net-file value="C:\Users\Toby\Desktop\Documents1\sumo-0.25.0\worldName.net\osm.net.xml"/>
    </input>

    <output>
        <output-file value="C:\Users\Toby\Desktop\Documents1\sumo-0.25.0\worldName.net\osm.net.xml"/>
        <output.street-names value="true"/>
    </output>

    <processing>
        <no-turnarounds value="true"/>
        <offset.disable-normalization value="true"/>
        <lefthand value="false"/>
        <junctions.corner-detail value="5"/>
    </processing>

</configuration>
-->

<net version="0.25" junctionCornerDetail="5" xmlns:xsi="http://www.w3.org/2001/XMLSchema-instance" xsi:noNamespaceSchemaLocation="http://sumo.dlr.de/xsd/net_file.xsd">

    <location netOffset="-604147.06,-5822649.22" convBoundary="0.00,0.00,1891.99,2820.00" origBoundary="-1.463891,52.543588,-1.428956,52.570299" projParameter="+proj=utm +zone=30 +ellps=WGS84 +datum=WGS84 +units=m +no_defs"/>

    <edge id=":1455765794_0" function="internal">
        <lane id=":1455765794_0_0" index="0" disallow="tram rail_urban rail rail_electric ship" speed="13.89" length="5.01" shape="981.45,2377.11 980.09,2376.87 978.99,2377.13 978.15,2377.88 977.55,2379.12"/>
    </edge>
    <edge id=":1455765794_1" function="internal">
        <lane id=":1455765794_1_0" index="0" disallow="tram rail_urban rail rail_electric ship" speed="13.89" length="9.52" shape="981.45,2377.11 972.38,2374.21"/>
    </edge>
    <edge id=":1455765794_2" function="internal">
        <lane id=":1455765794_2_0" index="0" disallow="tram rail_urban rail rail_electric ship" speed="13.89" length="10.35" shape="981.45,2377.11 978.90,2375.86 977.35,2374.11 976.80,2371.83 977.26,2369.04"/>
    </edge>
    <edge id=":1455765794_3" function="internal">
        <lane id=":1455765794_3_0" index="0" disallow="tram rail_urban rail rail_electric ship" speed="13.89" length="4.82" shape="981.45,2377.11 980.52,2375.94 980.39,2375.03 981.03,2374.37 982.46,2373.97"/>
    </edge>
    <edge id=":1455765794_4" function="internal">
        <lane id=":1455765794_4_0" index="0" disallow="tram rail_urban rail rail_electric ship" speed="13.89" length="5.06" shape="980.41,2370.03 980.19,2371.39 980.46,2372.50 981.21,2373.36 982.46,2373.97"/>
    </edge>
    <edge id=":1455765794_5" function="internal">
        <lane id=":1455765794_5_0" index="0" disallow="tram rail_urban rail rail_electric ship" speed="13.89" length="9.53" shape="980.41,2370.03 977.55,2379.12"/>
    </edge>
    <edge id=":1455765794_6" function="internal">
        <lane id=":1455765794_6_0" index="0" disallow="tram rail_urban rail rail_electric ship" speed="13.89" length="5.28" shape="980.41,2370.03 979.19,2372.58 977.44,2374.13 977.33,2374.16"/>
    </edge>
    <edge id=":1455765794_7" function="internal">
        <lane id=":1455765794_7_0" index="0" disallow="tram rail_urban rail rail_electric ship" speed="13.89" length="2.41" shape="980.41,2370.03 979.25,2370.96 978.34,2371.11"/>
    </edge>
    <edge id=":1455765794_16" function="internal">
        <lane id=":1455765794_16_0" index="0" speed="13.89" length="5.05" shape="977.33,2374.16 975.17,2374.67 972.38,2374.21"/>
    </edge>
    <edge id=":1455765794_17" function="internal">
        <lane id=":1455765794_17_0" index="0" speed="13.89" length="2.41" shape="978.34,2371.11 977.68,2370.47 977.26,2369.04"/>
    </edge>
    <edge id=":1455765794_8" function="internal">
        <lane id=":1455765794_8_0" index="0" disallow="tram rail_urban rail rail_electric ship" speed="13.89" length="5.00" shape="973.37,2371.07 974.72,2371.29 975.82,2371.03 976.67,2370.28 977.26,2369.04"/>
    </edge>
    <edge id=":1455765794_9" function="internal">
        <lane id=":1455765794_9_0" index="0" disallow="tram rail_urban rail rail_electric ship" speed="13.89" length="9.54" shape="973.37,2371.07 982.46,2373.97"/>
    </edge>
    <edge id=":1455765794_10" function="internal">
        <lane id=":1455765794_10_0" index="0" disallow="tram rail_urban rail rail_electric ship" speed="13.89" length="10.35" shape="973.37,2371.07 975.92,2372.29 977.47,2374.04 978.01,2376.32 977.55,2379.12"/>
    </edge>
    <edge id=":1455765794_11" function="internal">
        <lane id=":1455765794_11_0" index="0" disallow="tram rail_urban rail rail_electric ship" speed="13.89" length="4.82" shape="973.37,2371.07 974.30,2372.23 974.45,2373.14 973.81,2373.80 972.38,2374.21"/>
    </edge>
    <edge id=":1455765794_12" function="internal">
        <lane id=":1455765794_12_0" index="0" disallow="tram rail_urban rail rail_electric ship" speed="13.89" length="5.03" shape="974.41,2378.13 974.63,2376.77 974.37,2375.66 973.62,2374.81 972.38,2374.21"/>
    </edge>
    <edge id=":1455765794_13" function="internal">
        <lane id=":1455765794_13_0" index="0" disallow="tram rail_urban rail rail_electric ship" speed="13.89" length="9.53" shape="974.41,2378.13 977.26,2369.04"/>
    </edge>
    <edge id=":1455765794_14" function="internal">
        <lane id=":1455765794_14_0" index="0" disallow="tram rail_urban rail rail_electric ship" speed="13.89" length="5.29" shape="974.41,2378.13 975.63,2375.57 977.38,2374.02 977.49,2374.00"/>
    </edge>
    <edge id=":1455765794_15" function="internal">
        <lane id=":1455765794_15_0" index="0" disallow="tram rail_urban rail rail_electric ship" speed="13.89" length="2.41" shape="974.41,2378.13 975.56,2377.20 976.47,2377.05"/>
    </edge>
    <edge id=":1455765794_18" function="internal">
        <lane id=":1455765794_18_0" index="0" speed="13.89" length="5.08" shape="977.49,2374.00 979.66,2373.49 982.46,2373.97"/>
    </edge>
    <edge id=":1455765794_19" function="internal">
        <lane id=":1455765794_19_0" index="0" speed="13.89" length="2.41" shape="976.47,2377.05 977.14,2377.69 977.55,2379.12"/>
    </edge>
    <edge id=":1455772153_0" function="internal">
        <lane id=":1455772153_0_0" index="0" disallow="tram rail_urban rail rail_electric ship" speed="13.89" length="9.77" shape="1333.54,2259.07 1330.98,2268.49"/>
    </edge>
    <edge id=":1455772153_1" function="internal">
        <lane id=":1455772153_1_0" index="0" disallow="tram rail_urban rail rail_electric ship" speed="13.89" length="5.55" shape="1333.54,2259.07 1332.42,2261.85 1330.71,2263.53 1330.56,2263.57"/>
    </edge>
    <edge id=":1455772153_2" function="internal">
        <lane id=":1455772153_2_0" index="0" disallow="tram rail_urban rail rail_electric ship" speed="13.89" length="2.51" shape="1333.54,2259.07 1332.44,2260.08 1331.55,2260.28 1331.47,2260.22"/>
    </edge>
    <edge id=":1455772153_9" function="internal">
        <lane id=":1455772153_9_0" index="0" speed="13.89" length="5.14" shape="1330.56,2263.57 1328.42,2264.11 1325.53,2263.60"/>
    </edge>
    <edge id=":1455772153_10" function="internal">
        <lane id=":1455772153_10_0" index="0" speed="13.89" length="2.31" shape="1331.47,2260.22 1330.84,2259.69 1330.33,2258.29"/>
    </edge>
    <edge id=":1455772153_3" function="internal">
        <lane id=":1455772153_3_0" index="0" disallow="tram rail_urban rail rail_electric ship" speed="13.89" length="5.10" shape="1326.51,2260.45 1327.89,2260.69 1328.99,2260.41 1329.80,2259.61 1330.33,2258.29"/>
    </edge>
    <edge id=":1455772153_4" function="internal">
        <lane id=":1455772153_4_0" index="0" disallow="tram rail_urban rail rail_electric ship" speed="13.89" length="10.43" shape="1326.51,2260.45 1329.14,2261.73 1330.76,2263.50 1331.37,2265.76 1330.98,2268.49"/>
    </edge>
    <edge id=":1455772153_5" function="internal">
        <lane id=":1455772153_5_0" index="0" disallow="tram rail_urban rail rail_electric ship" speed="13.89" length="4.82" shape="1326.51,2260.45 1327.45,2261.60 1327.60,2262.51 1326.96,2263.18 1325.53,2263.60"/>
    </edge>
    <edge id=":1455772153_6" function="internal">
        <lane id=":1455772153_6_0" index="0" disallow="tram rail_urban rail rail_electric ship" speed="13.89" length="5.17" shape="1327.82,2267.54 1328.00,2266.21 1327.68,2265.11 1326.86,2264.24 1325.53,2263.60"/>
    </edge>
    <edge id=":1455772153_7" function="internal">
        <lane id=":1455772153_7_0" index="0" disallow="tram rail_urban rail rail_electric ship" speed="13.89" length="9.59" shape="1327.82,2267.54 1330.33,2258.29"/>
    </edge>
    <edge id=":1455772153_8" function="internal">
        <lane id=":1455772153_8_0" index="0" disallow="tram rail_urban rail rail_electric ship" speed="13.89" length="2.41" shape="1327.82,2267.54 1328.97,2266.60 1329.88,2266.44"/>
    </edge>
    <edge id=":1455772153_11" function="internal">
        <lane id=":1455772153_11_0" index="0" speed="13.89" length="2.41" shape="1329.88,2266.44 1330.55,2267.07 1330.98,2268.49"/>
    </edge>
    <edge id=":1455780375_0" function="internal">
        <lane id=":1455780375_0_0" index="0" disallow="tram rail_urban rail rail_electric ship" speed="13.89" length="5.48" shape="1211.14,2057.45 1209.80,2056.57 1208.66,2056.46 1207.71,2057.10 1206.97,2058.50"/>
    </edge>
    <edge id=":1455780375_1" function="internal">
        <lane id=":1455780375_1_0" index="0" disallow="tram rail_urban rail rail_electric ship" speed="13.89" length="20.71" shape="1211.14,2057.45 1207.70,2054.34 1203.50,2050.45 1199.29,2046.60 1195.78,2043.56"/>
    </edge>
    <edge id=":1455780375_2" function="internal">
        <lane id=":1455780375_2_0" index="0" disallow="tram rail_urban rail rail_electric ship" speed="13.89" length="4.82" shape="1211.14,2057.45 1210.73,2056.02 1210.95,2055.12 1211.80,2054.76 1213.28,2054.93"/>
    </edge>
    <edge id=":1455780375_3" function="internal">
        <lane id=":1455780375_3_0" index="0" disallow="tram rail_urban rail rail_electric ship" speed="13.89" length="20.72" shape="1197.91,2041.04 1201.42,2044.08 1205.63,2047.94 1209.83,2051.82 1213.28,2054.93"/>
    </edge>
    <edge id=":1455780375_4" function="internal">
        <lane id=":1455780375_4_0" index="0" disallow="tram rail_urban rail rail_electric ship" speed="13.89" length="18.55" shape="1197.91,2041.04 1201.73,2044.85 1204.00,2048.82 1204.73,2052.96 1203.91,2057.25"/>
    </edge>
    <edge id=":1455780375_5" function="internal">
        <lane id=":1455780375_5_0" index="0" disallow="tram rail_urban rail rail_electric ship" speed="13.89" length="4.82" shape="1197.91,2041.04 1198.32,2042.46 1198.11,2043.36 1197.26,2043.73 1195.78,2043.56"/>
    </edge>
    <edge id=":1455780375_6" function="internal">
        <lane id=":1455780375_6_0" index="0" disallow="tram rail_urban rail rail_electric ship" speed="13.89" length="10.36" shape="1194.74,2053.49 1195.94,2049.75 1196.52,2046.85 1196.46,2044.79 1195.78,2043.56"/>
    </edge>
    <edge id=":1455780375_7" function="internal">
        <lane id=":1455780375_7_0" index="0" disallow="tram rail_urban rail rail_electric ship" speed="13.89" length="19.22" shape="1197.80,2054.75 1200.14,2050.98 1203.50,2049.76 1207.88,2051.07 1213.28,2054.93"/>
    </edge>
    <edge id=":1455780375_8" function="internal">
        <lane id=":1455780375_8_0" index="0" disallow="tram rail_urban rail rail_electric ship" speed="13.89" length="4.82" shape="1200.86,2056.00 1202.09,2055.17 1203.01,2055.10 1203.62,2055.79 1203.91,2057.25"/>
    </edge>
    <edge id=":1455780387_0" function="internal">
        <lane id=":1455780387_0_0" index="0" disallow="tram rail_urban rail rail_electric ship" speed="13.89" length="5.14" shape="1192.26,2116.16 1190.87,2115.81 1189.74,2116.00 1188.86,2116.73 1188.23,2118.00"/>
    </edge>
    <edge id=":1455780387_1" function="internal">
        <lane id=":1455780387_1_0" index="0" disallow="tram rail_urban rail rail_electric ship" speed="13.89" length="14.47" shape="1192.26,2116.16 1187.00,2113.63 1183.48,2111.08 1181.70,2108.52 1181.66,2105.95"/>
        <lane id=":1455780387_1_1" index="1" disallow="tram rail_urban rail rail_electric ship" speed="13.89" length="14.47" shape="1192.26,2116.16 1188.34,2114.16 1185.80,2111.96 1184.62,2109.55 1184.81,2106.94"/>
    </edge>
    <edge id=":1455780387_3" function="internal">
        <lane id=":1455780387_3_0" index="0" disallow="tram rail_urban rail rail_electric ship" speed="13.89" length="4.82" shape="1192.26,2116.16 1191.46,2114.90 1191.42,2113.98 1192.13,2113.39 1193.60,2113.14"/>
    </edge>
    <edge id=":1455780387_4" function="internal">
        <lane id=":1455780387_4_0" index="0" disallow="tram rail_urban rail rail_electric ship" speed="13.89" length="5.48" shape="1191.11,2108.92 1190.92,2110.24 1191.28,2111.39 1192.17,2112.35 1193.60,2113.14"/>
    </edge>
    <edge id=":1455780387_5" function="internal">
        <lane id=":1455780387_5_0" index="0" disallow="tram rail_urban rail rail_electric ship" speed="13.89" length="9.52" shape="1191.11,2108.92 1188.23,2118.00"/>
        <lane id=":1455780387_5_1" index="1" disallow="tram rail_urban rail rail_electric ship" speed="13.89" length="9.52" shape="1187.96,2107.93 1185.09,2117.01"/>
    </edge>
    <edge id=":1455780387_7" function="internal">
        <lane id=":1455780387_7_0" index="0" disallow="tram rail_urban rail rail_electric ship" speed="13.89" length="2.41" shape="1187.96,2107.93 1186.80,2108.86 1185.89,2109.01"/>
    </edge>
    <edge id=":1455780387_13" function="internal">
        <lane id=":1455780387_13_0" index="0" speed="13.89" length="2.41" shape="1185.89,2109.01 1185.23,2108.36 1184.81,2106.94"/>
    </edge>
    <edge id=":1455780387_8" function="internal">
        <lane id=":1455780387_8_0" index="0" disallow="tram rail_urban rail rail_electric ship" speed="13.89" length="9.53" shape="1175.64,2114.04 1178.52,2104.96"/>
        <lane id=":1455780387_8_1" index="1" disallow="tram rail_urban rail rail_electric ship" speed="13.89" length="9.53" shape="1178.79,2115.03 1181.66,2105.95"/>
        <lane id=":1455780387_8_2" index="2" disallow="tram rail_urban rail rail_electric ship" speed="13.89" length="9.53" shape="1181.94,2116.02 1184.81,2106.94"/>
    </edge>
    <edge id=":1455780387_11" function="internal">
        <lane id=":1455780387_11_0" index="0" disallow="tram rail_urban rail rail_electric ship" speed="13.89" length="4.66" shape="1181.94,2116.02 1183.49,2113.30 1184.82,2112.54"/>
    </edge>
    <edge id=":1455780387_12" function="internal">
        <lane id=":1455780387_12_0" index="0" disallow="tram rail_urban rail rail_electric ship" speed="13.89" length="2.41" shape="1181.94,2116.02 1183.10,2115.08 1184.01,2114.94"/>
    </edge>
    <edge id=":1455780387_14" function="internal">
        <lane id=":1455780387_14_0" index="0" speed="13.89" length="9.13" shape="1184.82,2112.54 1185.94,2111.91 1189.31,2111.86 1193.60,2113.14"/>
    </edge>
    <edge id=":1455780387_15" function="internal">
        <lane id=":1455780387_15_0" index="0" speed="13.89" length="2.41" shape="1184.01,2114.94 1184.67,2115.58 1185.09,2117.01"/>
    </edge>
    <edge id=":1455780421_0" function="internal">
        <lane id=":1455780421_0_0" index="0" disallow="tram rail_urban rail rail_electric ship" speed="13.89" length="5.18" shape="1189.77,2302.87 1188.34,2302.63 1187.23,2302.93 1186.45,2303.76 1186.01,2305.13"/>
    </edge>
    <edge id=":1455780421_1" function="internal">
        <lane id=":1455780421_1_0" index="0" disallow="tram rail_urban rail rail_electric ship" speed="13.89" length="9.58" shape="1189.77,2302.87 1180.68,2299.85"/>
    </edge>
    <edge id=":1455780421_2" function="internal">
        <lane id=":1455780421_2_0" index="0" disallow="tram rail_urban rail rail_electric ship" speed="13.89" length="2.41" shape="1189.77,2302.87 1188.86,2301.69 1188.74,2300.78"/>
    </edge>
    <edge id=":1455780421_9" function="internal">
        <lane id=":1455780421_9_0" index="0" speed="13.89" length="2.41" shape="1188.74,2300.78 1189.39,2300.13 1190.83,2299.74"/>
    </edge>
    <edge id=":1455780421_3" function="internal">
        <lane id=":1455780421_3_0" index="0" disallow="tram rail_urban rail rail_electric ship" speed="13.89" length="9.58" shape="1181.73,2296.72 1190.83,2299.74"/>
    </edge>
    <edge id=":1455780421_4" function="internal">
        <lane id=":1455780421_4_0" index="0" disallow="tram rail_urban rail rail_electric ship" speed="13.89" length="4.90" shape="1181.73,2296.72 1184.03,2297.89 1185.51,2299.68"/>
    </edge>
    <edge id=":1455780421_5" function="internal">
        <lane id=":1455780421_5_0" index="0" disallow="tram rail_urban rail rail_electric ship" speed="13.89" length="2.41" shape="1181.73,2296.72 1182.64,2297.90 1182.77,2298.81"/>
    </edge>
    <edge id=":1455780421_10" function="internal">
        <lane id=":1455780421_10_0" index="0" speed="13.89" length="5.54" shape="1185.51,2299.68 1186.17,2302.09 1186.01,2305.13"/>
    </edge>
    <edge id=":1455780421_11" function="internal">
        <lane id=":1455780421_11_0" index="0" speed="13.89" length="2.41" shape="1182.77,2298.81 1182.12,2299.46 1180.68,2299.85"/>
    </edge>
    <edge id=":1455780421_6" function="internal">
        <lane id=":1455780421_6_0" index="0" disallow="tram rail_urban rail rail_electric ship" speed="13.89" length="5.69" shape="1182.76,2304.58 1182.87,2302.83 1182.57,2301.46 1181.83,2300.47 1180.68,2299.85"/>
    </edge>
    <edge id=":1455780421_7" function="internal">
        <lane id=":1455780421_7_0" index="0" disallow="tram rail_urban rail rail_electric ship" speed="13.89" length="11.10" shape="1182.76,2304.58 1183.71,2301.65 1185.37,2299.87 1187.74,2299.23 1190.83,2299.74"/>
    </edge>
    <edge id=":1455780421_8" function="internal">
        <lane id=":1455780421_8_0" index="0" disallow="tram rail_urban rail rail_electric ship" speed="13.89" length="4.82" shape="1182.76,2304.58 1183.78,2303.49 1184.66,2303.22 1185.40,2303.77 1186.01,2305.13"/>
    </edge>
    <edge id=":1455780431_0" function="internal">
        <lane id=":1455780431_0_0" index="0" disallow="tram rail_urban rail rail_electric ship" speed="13.89" length="25.72" shape="1119.44,2346.63 1114.36,2348.64 1107.45,2351.51 1100.74,2354.69 1096.26,2357.62"/>
    </edge>
    <edge id=":1455780431_1" function="internal">
        <lane id=":1455780431_1_0" index="0" disallow="tram rail_urban rail rail_electric ship" speed="13.89" length="22.50" shape="1119.44,2346.63 1111.23,2348.98 1106.16,2348.27 1104.22,2344.52 1105.41,2337.72"/>
        <lane id=":1455780431_1_1" index="1" disallow="tram rail_urban rail rail_electric ship" speed="13.89" length="22.50" shape="1119.44,2346.63 1112.93,2348.45 1108.94,2347.74 1107.48,2344.51 1108.54,2338.76"/>
    </edge>
    <edge id=":1455780431_3" function="internal">
        <lane id=":1455780431_3_0" index="0" disallow="tram rail_urban rail rail_electric ship" speed="13.89" length="4.84" shape="1119.44,2346.63 1117.96,2346.45 1117.22,2345.89 1117.22,2344.97 1117.96,2343.67"/>
    </edge>
    <edge id=":1455780431_4" function="internal">
        <lane id=":1455780431_4_0" index="0" disallow="tram rail_urban rail rail_electric ship" speed="13.89" length="6.40" shape="1114.80,2340.85 1114.42,2342.79 1114.82,2343.90 1116.00,2344.19 1117.96,2343.67"/>
    </edge>
    <edge id=":1455780431_5" function="internal">
        <lane id=":1455780431_5_0" index="0" disallow="tram rail_urban rail rail_electric ship" speed="13.89" length="25.45" shape="1114.80,2340.85 1111.08,2346.99 1105.70,2351.49 1100.23,2354.87 1096.26,2357.62"/>
    </edge>
    <edge id=":1455780431_6" function="internal">
        <lane id=":1455780431_6_0" index="0" disallow="tram rail_urban rail rail_electric ship" speed="13.89" length="4.82" shape="1111.67,2339.81 1110.50,2340.72 1109.58,2340.85 1108.93,2340.20 1108.54,2338.76"/>
    </edge>
    <edge id=":1455780431_7" function="internal">
        <lane id=":1455780431_7_0" index="0" disallow="tram rail_urban rail rail_electric ship" speed="13.89" length="19.57" shape="1094.71,2354.53 1096.98,2351.57 1098.70,2347.75 1100.32,2342.86 1102.28,2336.67"/>
    </edge>
    <edge id=":1455780431_8" function="internal">
        <lane id=":1455780431_8_0" index="0" disallow="tram rail_urban rail rail_electric ship" speed="13.89" length="25.73" shape="1094.71,2354.53 1099.21,2351.63 1105.94,2348.49 1112.87,2345.66 1117.96,2343.67"/>
    </edge>
    <edge id=":1455780431_9" function="internal">
        <lane id=":1455780431_9_0" index="0" disallow="tram rail_urban rail rail_electric ship" speed="13.89" length="5.04" shape="1094.71,2354.53 1096.25,2354.72 1097.03,2355.30 1097.03,2356.27 1096.26,2357.62"/>
    </edge>
    <edge id=":1455785678_0" function="internal">
        <lane id=":1455785678_0_0" index="0" disallow="tram rail_urban rail rail_electric ship" speed="13.89" length="5.18" shape="905.81,2353.21 904.38,2352.98 903.28,2353.28 902.52,2354.13 902.08,2355.51"/>
    </edge>
    <edge id=":1455785678_1" function="internal">
        <lane id=":1455785678_1_0" index="0" disallow="tram rail_urban rail rail_electric ship" speed="13.89" length="10.46" shape="905.81,2353.21 903.08,2351.97 901.28,2350.27 900.40,2348.10 900.46,2345.47"/>
    </edge>
    <edge id=":1455785678_2" function="internal">
        <lane id=":1455785678_2_0" index="0" disallow="tram rail_urban rail rail_electric ship" speed="13.89" length="4.82" shape="905.81,2353.21 904.88,2352.06 904.74,2351.14 905.38,2350.48 906.81,2350.07"/>
    </edge>
    <edge id=":1455785678_3" function="internal">
        <lane id=":1455785678_3_0" index="0" disallow="tram rail_urban rail rail_electric ship" speed="13.89" length="5.61" shape="903.71,2346.06 903.71,2347.38 904.22,2348.49 905.26,2349.39 906.81,2350.07"/>
    </edge>
    <edge id=":1455785678_4" function="internal">
        <lane id=":1455785678_4_0" index="0" disallow="tram rail_urban rail rail_electric ship" speed="13.89" length="9.59" shape="903.71,2346.06 902.08,2355.51"/>
    </edge>
    <edge id=":1455785678_5" function="internal">
        <lane id=":1455785678_5_0" index="0" disallow="tram rail_urban rail rail_electric ship" speed="13.89" length="2.41" shape="903.71,2346.06 902.68,2347.13 901.79,2347.39"/>
    </edge>
    <edge id=":1455785678_9" function="internal">
        <lane id=":1455785678_9_0" index="0" speed="13.89" length="2.41" shape="901.79,2347.39 901.05,2346.83 900.46,2345.47"/>
    </edge>
    <edge id=":1455785678_6" function="internal">
        <lane id=":1455785678_6_0" index="0" disallow="tram rail_urban rail rail_electric ship" speed="13.89" length="9.65" shape="898.82,2354.98 900.46,2345.47"/>
    </edge>
    <edge id=":1455785678_7" function="internal">
        <lane id=":1455785678_7_0" index="0" disallow="tram rail_urban rail rail_electric ship" speed="13.89" length="5.54" shape="898.82,2354.98 899.76,2352.02 901.40,2350.22"/>
    </edge>
    <edge id=":1455785678_8" function="internal">
        <lane id=":1455785678_8_0" index="0" disallow="tram rail_urban rail rail_electric ship" speed="13.89" length="2.41" shape="898.82,2354.98 899.84,2353.89 900.72,2353.62"/>
    </edge>
    <edge id=":1455785678_10" function="internal">
        <lane id=":1455785678_10_0" index="0" speed="13.89" length="5.54" shape="901.40,2350.22 903.75,2349.57 906.81,2350.07"/>
    </edge>
    <edge id=":1455785678_11" function="internal">
        <lane id=":1455785678_11_0" index="0" speed="13.89" length="2.41" shape="900.72,2353.62 901.47,2354.16 902.08,2355.51"/>
    </edge>
    <edge id=":1455836008_0" function="internal">
        <lane id=":1455836008_0_0" index="0" disallow="tram rail_urban rail rail_electric ship" speed="13.89" length="5.07" shape="1022.03,2248.14 1020.66,2247.84 1019.55,2248.06 1018.69,2248.80 1018.08,2250.06"/>
    </edge>
    <edge id=":1455836008_1" function="internal">
        <lane id=":1455836008_1_0" index="0" disallow="tram rail_urban rail rail_electric ship" speed="13.89" length="9.57" shape="1022.03,2248.14 1013.01,2244.95"/>
    </edge>
    <edge id=":1455836008_2" function="internal">
        <lane id=":1455836008_2_0" index="0" disallow="tram rail_urban rail rail_electric ship" speed="13.89" length="2.41" shape="1022.03,2248.14 1021.16,2246.94 1021.07,2246.02"/>
    </edge>
    <edge id=":1455836008_9" function="internal">
        <lane id=":1455836008_9_0" index="0" speed="13.89" length="2.41" shape="1021.07,2246.02 1021.74,2245.39 1023.19,2245.06"/>
    </edge>
    <edge id=":1455836008_3" function="internal">
        <lane id=":1455836008_3_0" index="0" disallow="tram rail_urban rail rail_electric ship" speed="13.89" length="9.70" shape="1014.05,2241.81 1023.19,2245.06"/>
    </edge>
    <edge id=":1455836008_4" function="internal">
        <lane id=":1455836008_4_0" index="0" disallow="tram rail_urban rail rail_electric ship" speed="13.89" length="5.33" shape="1014.05,2241.81 1016.55,2243.08 1018.06,2244.87 1018.10,2245.05"/>
    </edge>
    <edge id=":1455836008_5" function="internal">
        <lane id=":1455836008_5_0" index="0" disallow="tram rail_urban rail rail_electric ship" speed="13.89" length="2.41" shape="1014.05,2241.81 1014.96,2242.99 1015.10,2243.90"/>
    </edge>
    <edge id=":1455836008_10" function="internal">
        <lane id=":1455836008_10_0" index="0" speed="13.89" length="5.10" shape="1018.10,2245.05 1018.57,2247.20 1018.08,2250.06"/>
    </edge>
    <edge id=":1455836008_11" function="internal">
        <lane id=":1455836008_11_0" index="0" speed="13.89" length="2.41" shape="1015.10,2243.90 1014.45,2244.55 1013.01,2244.95"/>
    </edge>
    <edge id=":1455836008_6" function="internal">
        <lane id=":1455836008_6_0" index="0" disallow="tram rail_urban rail rail_electric ship" speed="13.89" length="5.18" shape="1014.94,2249.08 1015.19,2247.63 1014.95,2246.46 1014.23,2245.57 1013.01,2244.95"/>
    </edge>
    <edge id=":1455836008_7" function="internal">
        <lane id=":1455836008_7_0" index="0" disallow="tram rail_urban rail rail_electric ship" speed="13.89" length="10.61" shape="1014.94,2249.08 1016.20,2246.43 1018.00,2244.88 1020.33,2244.42 1023.19,2245.06"/>
    </edge>
    <edge id=":1455836008_8" function="internal">
        <lane id=":1455836008_8_0" index="0" disallow="tram rail_urban rail rail_electric ship" speed="13.89" length="4.82" shape="1014.94,2249.08 1016.09,2248.14 1017.00,2248.00 1017.67,2248.64 1018.08,2250.06"/>
    </edge>
    <edge id=":1765244983_0" function="internal">
        <lane id=":1765244983_0_0" index="0" disallow="tram rail_urban rail rail_electric ship" speed="13.89" length="3.21" shape="634.69,2040.00 632.45,2037.70"/>
    </edge>
    <edge id=":1765244983_1" function="internal">
        <lane id=":1765244983_1_0" index="0" allow="delivery bicycle pedestrian" speed="9.73" length="5.07" shape="634.69,2040.00 633.84,2038.86 633.50,2037.73 633.67,2036.59 634.34,2035.46"/>
    </edge>
    <edge id=":1765244983_2" function="internal">
        <lane id=":1765244983_2_0" index="0" disallow="tram rail_urban rail rail_electric ship" speed="9.73" length="3.57" shape="630.02,2040.32 631.10,2039.18 631.86,2038.36 632.32,2037.87 632.45,2037.70"/>
    </edge>
    <edge id=":1765244983_3" function="internal">
        <lane id=":1765244983_3_0" index="0" allow="delivery bicycle pedestrian" speed="5.56" length="6.50" shape="630.02,2040.32 634.34,2035.46"/>
    </edge>
    <edge id=":1765245032_0" function="internal">
        <lane id=":1765245032_0_0" index="0" disallow="tram rail_urban rail rail_electric ship" speed="13.89" length="2.26" shape="935.56,1806.91 935.36,1809.15"/>
    </edge>
    <edge id=":1765245032_1" function="internal">
        <lane id=":1765245032_1_0" index="0" allow="delivery bicycle pedestrian" speed="9.73" length="2.27" shape="935.56,1806.91 935.20,1809.15"/>
    </edge>
    <edge id=":1765245032_2" function="internal">
        <lane id=":1765245032_2_0" index="0" disallow="tram rail_urban rail rail_electric ship" speed="13.89" length="2.41" shape="935.56,1806.91 934.54,1807.99 933.66,1808.26"/>
    </edge>
    <edge id=":1765245032_9" function="internal">
        <lane id=":1765245032_9_0" index="0" speed="13.89" length="2.41" shape="933.66,1808.26 932.91,1807.71 932.31,1806.36"/>
    </edge>
    <edge id=":1765245032_3" function="internal">
        <lane id=":1765245032_3_0" index="0" disallow="tram rail_urban rail rail_electric ship" speed="9.73" length="2.76" shape="931.87,1809.08 932.31,1806.36"/>
    </edge>
    <edge id=":1765245032_4" function="internal">
        <lane id=":1765245032_4_0" index="0" disallow="tram rail_urban rail rail_electric ship" speed="9.73" length="26.13" shape="931.87,1809.08 933.58,1799.45 934.73,1796.25 935.32,1799.49 935.36,1809.15"/>
    </edge>
    <edge id=":1765245032_5" function="internal">
        <lane id=":1765245032_5_0" index="0" allow="delivery bicycle pedestrian" speed="5.56" length="4.86" shape="931.87,1809.08 932.73,1807.85 933.57,1807.45 934.39,1807.88 935.20,1809.15"/>
    </edge>
    <edge id=":1765245032_6" function="internal">
        <lane id=":1765245032_6_0" index="0" disallow="tram rail_urban rail rail_electric ship" speed="13.89" length="2.74" shape="932.06,1809.08 932.31,1806.36"/>
    </edge>
    <edge id=":1765245032_7" function="internal">
        <lane id=":1765245032_7_0" index="0" disallow="tram rail_urban rail rail_electric ship" speed="13.89" length="2.58" shape="932.06,1809.08 932.91,1807.86 933.74,1807.47 933.89,1807.55"/>
    </edge>
    <edge id=":1765245032_8" function="internal">