<?xml version="1.0" encoding="UTF-8"?>

<!-- generated on 03/22/16 15:26:38 by SUMO polyconvert Version 0.25.0
<?xml version="1.0" encoding="UTF-8"?>

<configuration xmlns:xsi="http://www.w3.org/2001/XMLSchema-instance" xsi:noNamespaceSchemaLocation="http://sumo.dlr.de/xsd/polyconvertConfiguration.xsd">

    <input>
        <net-file value="C:\Users\Toby\Desktop\sumo-0.25.0\tools\2016-03-22-15-26-34\osm.net.xml"/>
        <osm-files value="osm_bbox.osm.xml"/>
        <osm.keep-full-type value="true"/>
        <type-file value="C:\Users\Toby\Desktop\sumo-0.25.0\tools\..\data\typemap\osmPolyconvert.typ.xml"/>
    </input>

    <output>
        <output-file value="C:\Users\Toby\Desktop\sumo-0.25.0\tools\2016-03-22-15-26-34\osm.poly.xml"/>
    </output>

    <processing>
        <poi-layer-offset value="5"/>
    </processing>

    <report>
        <verbose value="true"/>
    </report>

</configuration>
-->

<additional xmlns:xsi="http://www.w3.org/2001/XMLSchema-instance" xsi:noNamespaceSchemaLocation="http://sumo.dlr.de/xsd/additional_file.xsd">
    <location netOffset="-604147.06,-5822649.22" convBoundary="-1316.39,0.00,2341.13,3637.53" origBoundary="-1.483112,52.543588,-1.428956,52.576517" projParameter="+proj=utm +zone=30 +ellps=WGS84 +datum=WGS84 +units=m +no_defs"/>

    <poly id="132319810" type="building.yes" color="255,230,230" fill="1" layer="-1.00" shape="1080.18,2053.69 1081.98,2046.62 1082.33,2045.27 1082.38,2045.06 1083.94,2045.87 1081.64,2055.06 1080.97,2054.71 1080.23,2054.36 1080.04,2054.27 1080.18,2053.69"/>
    <poly id="164933234" type="building.yes" color="255,230,230" fill="1" layer="-1.00" shape="559.40,2351.03 589.11,2403.13 597.27,2398.50 575.12,2359.66 567.56,2346.40 566.33,2347.09 559.40,2351.03"/>
    <poly id="165903929" type="landuse.forest" color="140,196,107" fill="1" layer="-3.00" shape="249.74,3132.06 244.57,3152.41 237.78,3147.05 242.10,3132.04 179.04,3104.44 144.10,3088.60 127.67,3091.73 121.49,3091.75 96.68,3078.01 83.39,3070.62 71.09,3067.45 60.32,3060.69 59.59,3043.84 76.68,2992.69 55.28,2990.20 36.94,2980.23 32.40,2971.57 59.46,2913.23 80.41,2886.10 99.22,2856.75 128.25,2808.90 134.68,2797.29 129.26,2778.30 131.66,2768.20 148.93,2760.00 157.87,2745.68 163.24,2737.08 185.03,2721.45 208.50,2746.62 251.43,2814.29 267.91,2843.08 281.61,2865.73 284.68,2875.37 256.82,2919.77 237.36,2945.47 219.63,2974.70 198.28,3004.13 196.10,3020.63 211.76,3036.92 263.87,3066.49 279.01,3072.61 267.86,3083.99 260.09,3107.03 249.74,3132.06"/>
    <poly id="165903930" type="landuse.forest" color="140,196,107" fill="1" layer="-3.00" shape="94.76,2656.56 73.32,2672.62 56.83,2695.49 42.44,2710.16 26.84,2737.66 14.27,2746.83 3.65,2733.54 26.56,2699.34 39.29,2682.20 45.72,2670.58 35.61,2667.46 14.68,2642.49 5.73,2635.63 -0.22,2624.76 -14.53,2613.56 -28.95,2607.46 -34.54,2579.61 -55.30,2580.77 -60.96,2590.66 -75.55,2592.54 -65.28,2571.12 -76.60,2556.37 -61.23,2500.67 -43.41,2432.26 -31.33,2394.64 -19.43,2382.56 -1.75,2388.89 14.99,2371.68 6.92,2357.87 -8.15,2348.11 1.39,2343.96 28.43,2355.28 35.06,2356.53 45.82,2358.55 59.18,2375.16 89.76,2413.19 106.23,2442.71 126.66,2467.58 128.57,2469.89 152.11,2491.43 163.99,2514.18 180.29,2534.85 184.03,2563.96 187.11,2590.14 181.35,2604.68 163.31,2614.31 141.37,2619.65 127.64,2628.10 105.71,2637.90 99.34,2646.32 94.76,2656.56"/>
    <poly id="236704753" type="building.yes" color="255,230,230" fill="1" layer="-1.00" shape="594.44,2727.86 596.49,2725.55 603.46,2731.14 601.40,2733.81 594.44,2727.86"/>
    <poly id="249229649" type="building.yes" color="255,230,230" fill="1" layer="-1.00" shape="210.84,1474.25 237.34,1476.63 233.32,1512.12 219.15,1511.08 219.67,1503.47 209.15,1502.17 210.84,1474.25"/>
    <poly id="249229650" type="building.yes" color="255,230,230" fill="1" layer="-1.00" shape="203.78,1532.18 255.38,1535.09 252.74,1556.44 229.88,1553.77 228.58,1563.55 201.35,1561.15 203.78,1532.18"/>
    <poly id="249229651" type="landuse.industrial" color="209,209,204" fill="1" layer="-3.00" shape="-668.04,1316.29 -600.54,1479.50 -576.40,1519.18 -531.70,1586.92 -512.00,1599.54 -469.03,1572.66 -418.89,1590.31 -379.94,1615.61 -319.88,1622.89 -275.15,1615.76 -236.26,1556.87 -211.73,1556.14 -58.66,1592.78 -25.39,1582.08 40.59,1558.82 119.18,1568.58 189.75,1583.99 205.20,1459.19 176.08,1471.52 165.84,1467.13 156.57,1466.90 141.81,1464.95 136.87,1459.07 135.38,1452.32 137.60,1419.96 136.16,1408.97 130.28,1401.23 120.60,1395.07 91.90,1391.15 86.14,1389.62 81.14,1387.33 69.00,1362.68 69.58,1356.02 72.21,1350.52 85.47,1344.42 92.18,1333.78 90.21,1306.56 93.77,1297.92 100.45,1293.82 146.27,1302.06 159.09,1304.39 178.91,1304.67 191.04,1296.98 195.38,1270.92 193.33,1259.66 187.70,1250.89 159.48,1202.53 146.85,1185.94 103.35,1171.35 90.88,1172.76 69.62,1182.41 -232.21,1320.34 -309.80,1149.94 -668.04,1316.29"/>
    <poly id="249243221" type="building.yes" color="255,230,230" fill="1" layer="-1.00" shape="195.45,1455.02 207.60,1456.55 208.49,1448.94 196.15,1447.59 195.45,1455.02"/>
    <poly id="249243223" type="building.yes" color="255,230,230" fill="1" layer="-1.00" shape="194.11,1410.80 207.21,1414.89 212.59,1397.68 198.21,1393.65 194.11,1410.80"/>
    <poly id="249243229" type="building.yes" color="255,230,230" fill="1" layer="-1.00" shape="384.65,1479.20 388.63,1488.90 402.39,1483.38 398.78,1473.50 384.65,1479.20"/>
    <poly id="249243230" type="building.yes" color="255,230,230" fill="1" layer="-1.00" shape="374.08,1523.24 383.36,1548.12 390.87,1545.92 392.92,1552.14 397.93,1556.05 403.92,1556.90 409.61,1553.94 412.08,1549.28 412.38,1543.66 409.94,1538.53 416.91,1535.95 407.08,1510.88 374.08,1523.24"/>
    <poly id="249243231" type="building.yes" color="255,230,230" fill="1" layer="-1.00" shape="357.40,1631.22 388.38,1619.90 385.62,1612.58 391.49,1610.72 397.45,1604.12 397.38,1598.50 396.01,1594.84 393.17,1591.51 389.19,1590.16 385.19,1590.07 378.24,1592.28 375.83,1585.88 344.83,1598.10 357.40,1631.22"/>
    <poly id="249243232" type="building.yes" color="255,230,230" fill="1" layer="-1.00" shape="432.21,1629.00 465.57,1616.65 475.09,1639.53 441.53,1652.07 432.21,1629.00"/>
    <poly id="249243233" type="building.yes" color="255,230,230" fill="1" layer="-1.00" shape="374.23,1668.95 390.59,1712.12 420.32,1700.24 404.66,1658.17 374.23,1668.95"/>
    <poly id="249243237" type="building.yes" color="255,230,230" fill="1" layer="-1.00" shape="467.01,1804.48 496.63,1823.07 513.91,1797.68 483.39,1778.70 477.01,1787.82 472.36,1784.08 465.01,1796.09 469.67,1799.09 467.01,1804.48"/>
    <poly id="249243238" type="building.yes" color="255,230,230" fill="1" layer="-1.00" shape="517.78,1854.74 551.53,1841.13 543.29,1818.81 509.36,1831.88 517.78,1854.74"/>
    <poly id="249243239" type="building.yes" color="255,230,230" fill="1" layer="-1.00" shape="517.11,1885.93 540.68,1880.99 543.84,1895.03 520.09,1899.60 517.11,1885.93"/>
    <poly id="249243240" type="building.yes" color="255,230,230" fill="1" layer="-1.00" shape="572.57,1911.97 570.12,1899.22 520.25,1909.40 521.05,1914.49 523.60,1914.19 525.07,1922.02 572.57,1911.97"/>
    <poly id="249243241" type="building.yes" color="255,230,230" fill="1" layer="-1.00" shape="369.26,1808.02 381.12,1806.27 383.46,1824.28 371.79,1825.66 369.26,1808.02"/>
    <poly id="249243242" type="building.yes" color="255,230,230" fill="1" layer="-1.00" shape="409.95,1819.05 425.25,1817.92 427.72,1838.66 412.06,1839.78 409.95,1819.05"/>
    <poly id="249243243" type="building.yes" color="255,230,230" fill="1" layer="-1.00" shape="421.31,1883.34 414.79,1865.05 439.15,1857.23 440.00,1859.78 443.12,1858.40 457.77,1862.34 459.09,1860.38 471.00,1864.62 470.60,1866.61 475.28,1868.53 469.51,1883.64 444.57,1875.85 421.31,1883.34"/>
    <poly id="249243244" type="building.yes" color="255,230,230" fill="1" layer="-1.00" shape="411.25,1928.30 481.76,1948.49 492.34,1913.16 488.54,1911.81 494.78,1892.52 465.32,1883.91 459.27,1902.83 422.23,1891.52 411.25,1928.30"/>
    <poly id="249243245" type="building.yes" color="255,230,230" fill="1" layer="-1.00" shape="332.49,1945.48 344.55,1942.84 349.74,1964.00 338.04,1966.65 332.49,1945.48"/>
    <poly id="249243246" type="building.yes" color="255,230,230" fill="1" layer="-1.00" shape="545.72,2053.28 525.45,2057.20 510.76,1978.51 531.77,1974.24 545.72,2053.28"/>
    <poly id="249243247" type="building.yes" color="255,230,230" fill="1" layer="-1.00" shape="551.86,1953.44 562.27,1951.48 569.22,1983.57 558.63,1985.33 551.86,1953.44"/>
    <poly id="249243248" type="building.yes" color="255,230,230" fill="1" layer="-1.00" shape="431.20,2033.05 456.64,2025.61 449.05,1997.87 438.63,2000.37 436.44,1992.15 439.00,1991.49 436.79,1984.73 423.24,1988.61 426.46,1999.39 422.08,2000.56 431.20,2033.05"/>
    <poly id="249243249" type="building.yes" color="255,230,230" fill="1" layer="-1.00" shape="437.36,2051.68 462.42,2044.61 470.72,2073.26 446.56,2080.37 437.36,2051.68"/>
    <poly id="257908116" type="landuse.farmland" color="194,194,130" fill="1" layer="-3.00" shape="1036.55,1421.41 1077.28,1292.51 1022.79,1287.30 978.22,1270.79 849.16,1208.26 773.76,1160.27 624.94,1067.15 601.75,1099.67 818.01,1260.55 1036.55,1421.41"/>
    <poly id="257908119" type="natural.wood" color="140,196,107" fill="1" layer="-4.00" shape="1431.59,1861.39 1445.74,1853.69 1481.49,1805.81 1481.94,1801.53 1480.14,1797.71 1475.50,1792.61 1473.92,1788.26 1474.08,1784.00 1478.55,1776.06 1499.75,1787.05 1510.61,1774.50 1344.55,1647.56 1307.60,1619.67 1293.01,1613.70 1212.17,1555.69 1036.55,1421.41 818.01,1260.55 601.75,1099.67 551.82,1064.41 482.22,1015.25 317.65,899.29 277.80,865.40 268.60,857.58 244.15,870.69 399.61,991.49 1431.59,1861.39"/>
    <poly id="257910030" type="landuse.farmland" color="194,194,130" fill="1" layer="-3.00" shape="569.17,3611.08 623.21,3635.25 656.84,3637.53 730.22,3632.58 758.74,3626.03 779.31,3611.85 868.81,3524.20 925.88,3466.33 957.19,3431.54 962.54,3400.23 979.58,3362.03 990.05,3342.67 1032.51,3264.24 1091.29,3257.12 1144.62,3227.78 1183.26,3199.99 1235.65,3142.64 1308.46,3091.95 1411.70,3018.90 1475.36,2973.92 1502.19,2944.63 1530.40,2909.47 1700.85,2757.29 1669.07,2698.12 1566.37,2788.92 1541.62,2811.35 1507.24,2842.53 1503.70,2845.74 1505.89,2816.54 1510.48,2792.06 1486.95,2812.71 1416.31,2863.14 1344.26,2921.62 1241.32,3009.61 1146.69,3073.53 1090.52,3104.37 1084.25,3084.16 1364.82,2876.40 1515.47,2762.62 1543.70,2762.35 1684.49,2656.29 1690.35,2617.82 1677.95,2586.04 1666.87,2580.36 1651.73,2560.37 1604.07,2572.73 1452.35,2645.60 1418.79,2659.76 1290.47,2716.70 1273.04,2747.99 1131.72,2879.58 1173.05,2926.22 1106.11,3003.53 1085.97,3037.85 1047.34,3049.78 1027.04,3050.22 911.33,2975.58 837.86,3069.48 788.85,3154.64 745.76,3251.38 702.85,3236.83 689.55,3219.82 580.13,3139.62 527.42,3109.01 494.61,3096.43 466.71,3101.99 416.53,3118.08 409.60,3111.76 448.09,3065.52 490.22,2930.48 455.98,2902.47 354.01,2844.85 316.01,2827.33 323.12,2807.17 353.58,2782.93 324.95,2721.34 326.12,2637.37 462.29,2628.46 597.89,2617.05 582.89,2560.10 552.94,2531.47 542.23,2507.59 551.03,2474.81 502.93,2420.26 478.21,2409.16 465.56,2388.35 468.97,2374.73 457.08,2347.10 338.25,2215.75 266.56,2301.34 224.30,2322.83 158.51,2336.36 117.95,2337.37 180.29,2534.85 187.11,2590.14 205.09,2667.45 216.66,2721.05 208.50,2746.62 251.43,2814.29 267.91,2843.08 281.61,2865.73 284.68,2875.37 256.82,2919.77 237.36,2945.47 219.63,2974.70 198.28,3004.13 196.10,3020.63 211.76,3036.92 263.87,3066.49 279.01,3072.61 267.86,3083.99 260.09,3107.03 249.74,3132.06 244.57,3152.41 237.78,3147.05 242.10,3132.04 179.04,3104.44 144.10,3088.60 127.67,3091.73 121.49,3091.75 96.68,3078.01 83.39,3070.62 71.09,3067.45 60.32,3060.69 59.59,3043.84 76.68,2992.69 55.28,2990.20 36.94,2980.23 32.40,2971.57 59.46,2913.23 80.41,2886.10 99.22,2856.75 128.25,2808.90 134.68,2797.29 129.26,2778.30 131.66,2768.20 148.93,2760.00 157.87,2745.68 73.32,2672.62 56.83,2695.49 42.44,2710.16 26.84,2737.66 14.27,2746.83 -20.57,2791.22 -35.70,2839.73 -38.21,2872.33 -37.14,2890.49 -32.36,2905.11 -37.40,2919.87 -41.46,2939.38 -43.28,2956.75 -50.70,2963.49 -80.74,2956.32 -99.97,2954.46 -105.80,2955.06 -111.97,2970.67 -123.35,2975.51 -130.24,2975.22 -143.02,2977.85 -152.48,2978.01 -157.94,2977.89 -156.93,2965.22 -160.38,2956.08 -158.30,2942.84 -163.92,2934.23 -177.34,2932.86 -192.12,2925.80 -215.26,2920.08 -231.13,2913.58 -241.95,2909.72 -252.86,2909.49 -261.10,2903.87 -266.19,2903.40 -269.37,2898.98 -283.47,2895.41 -288.52,2893.13 -286.17,2884.26 -281.18,2872.02 -279.82,2860.30 -287.05,2857.39 -287.10,2843.45 -288.38,2835.45 -291.89,2828.62 -290.96,2819.79 -296.24,2811.34 -302.33,2807.21 -311.38,2804.84 -314.96,2801.28 -316.28,2796.03 -313.64,2790.79 -312.12,2787.55 -315.17,2777.92 -329.84,2766.71 -347.02,2752.35 -358.03,2741.09 -365.17,2733.46 -362.04,2723.73 -344.53,2704.73 -331.16,2691.95 -323.99,2679.41 -317.81,2678.60 -307.36,2667.06 -293.20,2651.03 -281.97,2635.09 -274.25,2632.21 -268.94,2621.79 -260.75,2613.62 -241.98,2620.20 -235.73,2616.70 -221.38,2608.08 -208.34,2593.84 -192.89,2583.53 -178.83,2574.52 -151.28,2612.83 -127.03,2653.84 -76.60,2556.37 -43.41,2432.26 -31.33,2394.64 -19.43,2382.56 -1.75,2388.89 14.99,2371.68 6.92,2357.87 -8.15,2348.11 1.39,2343.96 28.43,2355.28 69.97,2296.15 82.38,2167.62 118.41,2130.42 166.34,2165.05 248.86,2098.36 267.39,2004.48 282.70,1930.44 283.86,1905.26 263.74,1897.99 254.48,1747.50 252.73,1683.36 262.69,1629.06 227.27,1622.71 180.37,1623.49 178.13,1634.50 167.03,1643.34 147.92,1652.37 130.06,1654.16 105.41,1658.72 90.98,1652.78 74.06,1652.79 66.54,1647.19 -4.04,1638.97 -22.36,1645.12 -47.58,1650.38 -68.31,1650.30 -87.86,1645.54 -120.43,1637.58 -156.37,1633.91 -194.97,1635.99 -222.34,1640.13 -238.90,1648.86 -270.66,1655.05 -345.98,1647.23 -386.41,1641.39 -397.56,1654.72 -427.59,1652.71 -447.21,1697.09 -457.88,1754.19 -459.59,1766.50 -515.71,1805.23 -544.53,1826.39 -588.25,1852.64 -605.85,1870.09 -632.45,1889.12 -636.46,1924.87 -577.82,1998.61 -607.04,2023.19 -553.78,2071.30 -591.79,2113.13 -632.65,2069.01 -626.03,2021.55 -695.76,1941.34 -654.17,1906.76 -667.41,1891.28 -674.36,1875.89 -692.12,1855.92 -702.34,1857.16 -731.10,1875.42 -755.47,1892.32 -785.76,1914.18 -827.63,1932.89 -854.82,1946.11 -856.51,1956.95 -850.36,1975.95 -901.60,1990.84 -912.46,1988.53 -927.31,1967.80 -938.03,1958.86 -967.84,1940.24 -970.21,1932.05 -960.04,1933.00 -925.76,1946.20 -909.53,1952.93 -880.07,1936.14 -864.18,1931.19 -856.62,1913.00 -842.41,1909.36 -809.47,1899.89 -783.76,1888.10 -736.49,1854.98 -713.50,1834.43 -699.68,1817.45 -688.45,1802.44 -672.55,1790.29 -650.14,1762.46 -609.26,1721.96 -582.26,1684.07 -532.16,1604.60 -552.37,1579.53 -607.86,1492.10 -632.15,1430.86 -680.15,1322.46 -1171.83,1547.56 -1316.39,1614.88 -1296.45,1643.89 -1285.85,1667.76 -1282.88,1673.42 -1258.57,1723.66 -1230.81,1772.42 -1160.98,1804.37 -1081.39,1845.99 -1070.59,1867.56 -1058.74,1880.78 -1053.45,1889.87 -1070.36,1887.58 -1089.30,1875.95 -1149.37,1827.39 -1180.68,1837.07 -1211.47,1822.67 -1219.08,1796.55 -1224.66,1799.62 -1231.12,1813.25 -1240.81,1821.99 -1280.08,1924.25 -1282.55,1952.81 -1255.72,2041.74 -1249.74,2112.81 -1265.04,2306.63 -1277.04,2391.48 -1283.69,2432.84 -1303.60,2556.50 -1306.33,2665.11 -1296.23,2710.89 -1246.01,2813.99 -1189.94,2935.86 -943.57,3024.44 -834.42,3064.86 -688.19,3127.45 -632.34,3140.52 -568.72,3162.09 -529.14,3192.68 -494.66,3210.87 -270.79,3290.32 -54.75,3368.88 151.43,3426.40 342.88,3499.65 443.92,3559.00 531.38,3593.43 587.17,3454.38 637.92,3487.51 569.17,3611.08"/>
    <poly id="257910036" type="natural.wood" color="140,196,107" fill="1" layer="-4.00" shape="1090.52,3104.37 1146.69,3073.53 1241.32,3009.61 1344.26,2921.62 1416.31,2863.14 1486.95,2812.71 1510.48,2792.06 1505.89,2816.54 1507.24,2842.53 1541.62,2811.35 1669.07,2698.12 1695.08,2669.89 1700.54,2641.41 1707.60,2620.89 1717.51,2611.42 1701.54,2585.14 1690.78,2588.18 1677.95,2586.04 1690.35,2617.82 1684.49,2656.29 1543.70,2762.35 1515.47,2762.62 1364.82,2876.40 1084.25,3084.16 1090.52,3104.37"/>
    <poly id="257910037" type="natural.wood" color="140,196,107" fill="1" layer="-4.00" shape="702.85,3236.83 745.76,3251.38 788.85,3154.64 837.86,3069.48 911.33,2975.58 1027.04,3050.22 1047.34,3049.78 1085.97,3037.85 1106.11,3003.53 1173.05,2926.22 1131.72,2879.58 1103.32,2826.51 1085.19,2808.08 1073.44,2821.46 1091.71,2853.53 1115.33,2883.52 1137.58,2914.80 1132.77,2933.61 1107.75,2928.23 1081.46,2899.51 1044.03,2876.26 1009.99,2859.70 989.28,2858.37 971.23,2857.11 938.12,2858.15 905.43,2860.97 897.64,2874.44 911.18,2901.13 904.55,2922.54 881.63,2962.96 832.64,2985.23 819.37,3007.38 809.83,3061.29 780.41,3137.65 751.49,3190.69 722.96,3204.60 705.64,3210.39 693.18,3215.40 689.55,3219.82 702.85,3236.83"/>
    <poly id="257910038" type="natural.wood" color="140,196,107" fill="1" layer="-4.00" shape="-4.04,1638.97 66.54,1647.19 77.24,1640.16 82.43,1627.21 74.18,1613.23 78.45,1609.15 86.80,1609.88 100.44,1609.62 120.64,1618.40 142.56,1630.66 164.87,1633.86 180.37,1623.49 227.27,1622.71 262.69,1629.06 270.18,1597.37 208.16,1592.98 189.75,1583.99 119.18,1568.58 40.59,1558.82 -25.39,1582.08 -58.66,1592.78 -211.73,1556.14 -236.26,1556.87 -275.15,1615.76 -319.88,1622.89 -379.94,1615.61 -418.89,1590.31 -469.03,1572.66 -418.71,1605.23 -386.41,1641.39 -345.98,1647.23 -270.66,1655.05 -238.90,1648.86 -242.86,1646.59 -246.73,1640.35 -249.78,1613.06 -244.69,1595.75 -236.34,1579.23 -228.02,1581.59 -219.79,1588.47 -205.26,1597.85 -181.95,1605.25 -100.18,1634.93 -78.88,1642.46 -53.85,1645.89 -4.04,1638.97"/>
    <poly id="257916305" type="natural.wood" color="140,196,107" fill="1" layer="-4.00" shape="386.24,2221.17 418.33,2179.54 415.51,2165.48 387.09,2123.18 396.18,2106.57 412.88,2084.22 405.17,2059.21 380.24,2078.86 332.20,2122.94 305.69,2093.75 293.79,2066.74 298.71,2011.47 301.02,1976.66 308.11,1951.30 320.57,1908.00 306.56,1906.77 280.65,2024.77 275.86,2073.83 295.03,2110.94 354.46,2161.06 375.03,2205.69 386.24,2221.17"/>
    <poly id="326931078" type="amenity.place_of_worship" color="237,199,199" fill="1" layer="-1.00" shape="1804.69,1446.32 1808.26,1446.39 1808.39,1448.71 1831.66,1448.68 1831.70,1446.90 1836.00,1446.82 1835.95,1440.56 1831.48,1440.64 1831.34,1438.86 1826.68,1439.12 1826.61,1434.11 1807.81,1434.24 1808.21,1440.85 1804.63,1440.77 1804.69,1446.32"/>
    <poly id="326931078#1" type="building.yes" color="255,230,230" fill="1" layer="-1.00" shape="1804.69,1446.32 1808.26,1446.39 1808.39,1448.71 1831.66,1448.68 1831.70,1446.90 1836.00,1446.82 1835.95,1440.56 1831.48,1440.64 1831.34,1438.86 1826.68,1439.12 1826.61,1434.11 1807.81,1434.24 1808.21,1440.85 1804.63,1440.77 1804.69,1446.32"/>
    <poly id="326932212" type="landuse.grass" color="194,194,130" fill="1" layer="-3.00" shape="1615.60,2403.49 1602.87,2397.91 1589.05,2396.47 1575.44,2399.32 1563.37,2406.18 1553.97,2416.40 1548.15,2429.00 1546.48,2442.76 1549.71,2457.97 1557.96,2471.16 1570.22,2480.75 1585.04,2485.58 1600.61,2485.07 1615.07,2479.28 1626.68,2468.92 1634.04,2455.22 1636.27,2439.84 1633.10,2424.62 1626.01,2412.69 1615.60,2403.49"/>
    <poly id="326932213" type="landuse.grass" color="194,194,130" fill="1" layer="-3.00" shape="1400.40,2519.93 1386.77,2505.76 1369.10,2497.08 1349.53,2494.94 1330.41,2499.61 1314.03,2510.50 1302.38,2526.33 1296.84,2545.17 1297.66,2562.89 1303.94,2579.49 1315.06,2593.32 1329.92,2603.06 1347.08,2607.72 1364.84,2606.87 1381.46,2600.58 1395.32,2589.46 1405.04,2574.61 1409.68,2557.49 1408.36,2537.90 1400.40,2519.93"/>
    <poly id="326932215" type="natural.water" color="181,209,209" fill="1" layer="-4.00" shape="1071.43,2487.63 1069.82,2502.92 1071.96,2512.75 1076.73,2519.02 1083.47,2522.78 1088.37,2523.53 1092.23,2522.13 1095.76,2516.67 1099.08,2511.20 1105.67,2502.62 1112.87,2494.70 1121.55,2487.86 1131.95,2480.42 1140.82,2474.87 1152.74,2465.77 1160.81,2457.85 1167.13,2451.60 1169.22,2443.57 1166.19,2436.06 1161.43,2428.93 1154.53,2422.61 1146.73,2418.19 1140.62,2414.86 1135.27,2415.59 1127.31,2418.62 1115.69,2423.47 1106.60,2429.66 1100.71,2435.28 1094.29,2446.41 1089.81,2456.32 1084.04,2466.62 1071.43,2487.63"/>
    <poly id="326932216" type="natural.water" color="181,209,209" fill="1" layer="-4.00" shape="1206.81,2491.49 1233.07,2473.14 1305.87,2428.84 1350.72,2401.14 1395.64,2370.58 1408.88,2356.53 1415.01,2338.60 1416.21,2322.86 1408.02,2316.38 1397.48,2312.14 1391.34,2317.16 1390.72,2332.06 1384.98,2345.12 1332.48,2380.97 1323.00,2381.05 1317.49,2383.22 1312.26,2385.69 1307.02,2388.73 1297.50,2390.54 1292.68,2387.56 1287.13,2392.03 1282.14,2396.50 1275.83,2396.09 1269.74,2398.54 1258.24,2399.15 1252.01,2421.08 1242.45,2424.60 1224.28,2441.41 1217.67,2440.98 1214.80,2454.68 1210.48,2454.59 1206.44,2482.31 1206.81,2491.49"/>
    <poly id="326986973" type="landuse.grass" color="194,194,130" fill="1" layer="-3.00" shape="593.89,2104.84 603.78,2093.08 601.58,2064.00 600.23,2063.34 598.78,2063.67 592.09,2065.98 588.85,2068.45 585.71,2070.65 583.15,2071.32 580.69,2071.72 577.77,2071.66 576.32,2071.63 575.40,2072.42 576.65,2090.05 577.53,2091.52 584.05,2097.20 593.89,2104.84"/>
    <poly id="326987782" type="landuse.grass" color="194,194,130" fill="1" layer="-3.00" shape="588.74,2322.04 588.71,2321.65 587.36,2301.73 587.29,2300.60 590.41,2303.39 591.91,2318.30 588.74,2322.04"/>
    <poly id="326987783" type="landuse.grass" color="194,194,130" fill="1" layer="-3.00" shape="576.24,2336.74 577.35,2340.03 579.68,2337.09 579.53,2335.54 579.92,2334.64 579.38,2326.52 577.45,2297.35 576.89,2289.04 572.00,2283.76 572.81,2288.86 572.99,2291.40 576.11,2335.00 576.24,2336.74"/>
    <poly id="326987784" type="natural.water" color="181,209,209" fill="1" layer="-4.00" shape="584.75,2321.94 588.71,2321.65 587.36,2301.73 583.45,2301.88 584.75,2321.94"/>
    <poly id="326987785" type="natural.water" color="181,209,209" fill="1" layer="-4.00" shape="581.33,2297.12 577.45,2297.35 579.38,2326.52 583.22,2326.34 581.33,2297.12"/>
    <poly id="326987786" type="natural.water" color="181,209,209" fill="1" layer="-4.00" shape="569.63,2335.25 576.11,2335.00 572.99,2291.40 566.30,2291.66 569.63,2335.25"/>
    <poly id="326988338" type="landuse.grass" color="194,194,130" fill="1" layer="-3.00" shape="608.82,2300.22 620.19,2286.71 618.13,2256.19 605.19,2246.79 590.25,2263.95 592.49,2285.99 608.82,2300.22"/>
    <poly id="326988339" type="natural.scrub" color="140,196,107" fill="1" layer="-4.00" shape="583.40,2329.09 585.08,2327.04 583.10,2296.42 581.15,2294.30 583.40,2329.09"/>
    <poly id="326988340" type="landuse.grass" color="194,194,130" fill="1" layer="-3.00" shape="597.39,2358.23 614.49,2371.97 625.71,2359.86 623.66,2329.35 609.99,2317.74 595.80,2335.95 597.39,2358.23"/>
    <poly id="326988341" type="landuse.grass" color="194,194,130" fill="1" layer="-3.00" shape="581.35,2360.71 576.43,2355.59 576.26,2351.35 572.90,2346.00 570.79,2342.36 570.07,2339.77 569.77,2337.14 566.08,2288.71 565.64,2281.56 560.36,2287.75 557.30,2292.05 554.76,2296.49 553.25,2300.70 552.39,2304.68 552.02,2309.68 552.17,2314.96 552.72,2319.47 554.03,2324.25 555.99,2329.18 559.10,2334.27 566.33,2347.09 567.56,2346.40 575.12,2359.66 575.74,2359.24 578.29,2363.55 581.35,2360.71"/>
    <poly id="326990838" type="building.yes" color="255,230,230" fill="1" layer="-1.00" shape="232.99,2266.16 235.22,2268.88 240.86,2264.90 243.94,2268.69 234.61,2275.55 229.49,2268.76 232.99,2266.16"/>
    <poly id="326990838#1" type="landuse.grass" color="194,194,130" fill="1" layer="-3.00" shape="232.99,2266.16 235.22,2268.88 240.86,2264.90 243.94,2268.69 234.61,2275.55 229.49,2268.76 232.99,2266.16"/>
    <poly id="326990841" type="building.yes" color="255,230,230" fill="1" layer="-1.00" shape="173.94,2279.53 175.30,2284.25 188.39,2280.61 187.03,2275.82 184.19,2276.62 173.94,2279.53"/>
    <poly id="326990852" type="landuse.grass" color="194,194,130" fill="1" layer="-3.00" shape="234.97,2278.78 238.08,2279.01 244.23,2274.31 249.19,2268.55 254.67,2262.98 259.46,2257.40 263.38,2251.96 265.00,2248.72 272.50,2229.39 273.81,2224.77 274.25,2220.64 274.18,2215.64 273.58,2211.49 272.62,2207.67 270.84,2201.94 268.50,2198.27 265.13,2194.06 261.59,2190.19 257.49,2187.52 253.23,2185.02 248.59,2183.36 242.92,2181.86 236.18,2181.71 229.94,2182.62 224.37,2184.22 220.71,2185.87 219.47,2187.22 219.09,2188.77 219.23,2190.32 220.06,2191.72 221.73,2194.51 210.33,2202.37 210.58,2206.69 210.00,2209.95 208.53,2213.89 206.73,2217.29 203.34,2222.40 200.15,2225.61 197.00,2227.61 192.63,2229.76 190.19,2230.74 188.84,2237.10 188.25,2240.52 187.81,2245.18 187.70,2250.17 187.77,2255.18 188.50,2261.40 189.26,2266.42 190.55,2270.75 191.84,2275.10 188.04,2275.58 186.81,2271.45 186.30,2268.32 185.41,2263.79 184.85,2258.92 184.82,2256.63 184.12,2258.42 182.84,2260.60 180.91,2262.29 179.49,2263.08 180.21,2272.05 181.90,2273.73 183.28,2274.82 184.19,2276.62 187.03,2275.82 188.39,2280.61 175.30,2284.25 173.94,2279.53 173.49,2277.99 173.78,2276.51 174.29,2275.54 175.13,2274.82 175.80,2274.17 176.40,2272.87 176.76,2271.89 176.78,2270.75 176.73,2269.26 176.78,2266.81 175.72,2266.45 174.31,2266.75 172.15,2267.78 169.99,2268.63 167.90,2269.90 166.22,2271.34 164.21,2273.10 162.87,2274.31 161.84,2276.50 161.05,2278.87 160.82,2281.90 161.09,2284.21 162.03,2286.61 163.47,2288.37 165.00,2290.05 166.22,2290.97 172.57,2290.28 177.19,2290.14 183.28,2290.10 189.86,2290.33 197.88,2291.43 206.19,2290.91 213.13,2290.03 219.56,2288.09 224.26,2286.81 224.82,2284.93 234.97,2278.78"/>
    <poly id="326992503" type="building.yes" color="255,230,230" fill="1" layer="-1.00" shape="181.24,2220.98 197.71,2210.45 193.79,2204.76 188.35,2208.58 179.19,2194.16 173.68,2198.57 180.87,2209.19 175.80,2212.53 181.24,2220.98"/>
    <poly id="366020754" type="amenity.school" color="237,199,199" fill="1" layer="-1.00" shape="1865.29,1338.41 1865.03,1361.22 1870.86,1363.79 1879.46,1365.42 1886.94,1366.18 1901.57,1368.74 1916.64,1371.61 1924.68,1375.28 1927.46,1426.51 1865.28,1425.10 1854.68,1425.67 1849.93,1403.23 1787.85,1391.18 1797.11,1347.37 1815.75,1340.81 1865.29,1338.41"/>
    <poly id="387297020" type="amenity.grave_yard" color="237,199,199" fill="1" layer="-1.00" shape="1798.31,1492.17 1840.05,1499.72 1843.05,1457.80 1854.68,1425.67 1849.93,1403.23 1787.85,1391.18 1787.66,1412.32 1781.01,1420.16 1798.31,1492.17"/>
    <poly id="387297023" type="amenity.pub" color="237,199,199" fill="1" layer="-1.00" shape="1743.73,1370.52 1750.93,1370.69 1750.89,1372.58 1756.23,1372.70 1756.09,1378.62 1762.21,1378.78 1762.63,1361.22 1743.97,1360.77 1743.73,1370.52"/>
    <poly id="387297023#1" type="building.pub" color="255,230,230" fill="1" layer="-1.00" shape="1743.73,1370.52 1750.93,1370.69 1750.89,1372.58 1756.23,1372.70 1756.09,1378.62 1762.21,1378.78 1762.63,1361.22 1743.97,1360.77 1743.73,1370.52"/>
    <poly id="387297031" type="building.residential" color="255,230,230" fill="1" layer="-1.00" shape="1712.66,1335.48 1733.29,1340.03 1734.50,1334.55 1719.04,1331.14 1721.04,1322.10 1715.87,1320.97 1712.66,1335.48"/>
    <poly id="387297040" type="landuse.residential" color="235,235,227" fill="1" layer="-3.00" shape="1349.52,1289.18 1283.23,1282.84 1279.36,1317.01 1274.01,1350.00 1289.40,1354.24 1293.08,1364.39 1306.79,1367.97 1297.11,1416.08 1281.32,1491.98 1281.72,1498.81 1277.08,1498.21 1273.87,1518.95 1262.06,1562.14 1300.22,1576.47 1314.79,1534.99 1318.03,1521.57 1317.32,1497.33 1309.39,1493.83 1315.96,1467.56 1322.78,1438.35 1348.61,1310.71 1349.52,1289.18"/>
    <poly id="387297041" type="landuse.residential" color="235,235,227" fill="1" layer="-3.00" shape="1699.89,1344.82 1678.80,1334.91 1667.47,1330.20 1658.63,1329.34 1640.53,1329.52 1617.64,1325.45 1582.70,1315.43 1570.40,1371.80 1591.01,1375.20 1597.16,1376.65 1603.04,1361.40 1623.68,1367.36 1627.98,1353.57 1652.12,1361.57 1646.86,1396.35 1691.17,1408.72 1696.20,1389.42 1732.86,1395.34 1737.71,1385.33 1741.38,1350.68 1723.22,1349.76 1699.89,1344.82"/>
    <poly id="387297044" type="landuse.residential" color="235,235,227" fill="1" layer="-3.00" shape="1334.73,1435.95 1327.79,1475.03 1325.71,1505.58 1324.80,1520.86 1321.28,1534.37 1310.04,1577.59 1308.24,1586.32 1308.50,1598.14 1310.22,1606.40 1313.80,1611.76 1307.60,1619.67 1344.55,1647.56 1348.05,1643.24 1335.65,1619.58 1365.81,1513.14 1425.68,1512.61 1432.07,1513.38 1437.01,1514.53 1443.53,1514.66 1461.44,1472.98 1463.16,1472.82 1468.86,1461.05 1477.71,1426.37 1397.13,1420.97 1410.78,1328.35 1455.93,1326.42 1450.00,1296.45 1366.16,1289.55 1362.55,1296.99 1334.73,1435.95"/>
    <poly id="45774277" type="amenity.parking" color="184,184,179" fill="1" layer="-1.00" shape="896.00,1807.26 898.50,1790.53 899.14,1790.72 904.33,1795.27 906.64,1796.50 909.37,1797.50 913.64,1798.86 923.22,1800.42 910.95,1868.90 901.03,1866.95 888.38,1853.81 896.00,1807.26"/>
    <poly id="45774278" type="building.yes" color="255,230,230" fill="1" layer="-1.00" shape="659.20,1993.05 659.41,2006.30 664.62,2006.22 664.64,2007.03 669.35,2006.97 669.11,1992.55 664.35,1992.63 664.35,1992.97 659.20,1993.05"/>
    <poly id="45774285" type="amenity.parking" color="184,184,179" fill="1" layer="-1.00" shape="635.46,1972.57 655.08,1973.28 655.27,1977.42 657.64,1977.33 657.92,1981.63 655.26,1981.67 656.11,2006.91 635.64,2006.51 635.46,1972.57"/>
    <poly id="45774286" type="amenity.parking" color="184,184,179" fill="1" layer="-1.00" shape="660.54,2008.78 672.04,2008.07 672.68,2011.44 675.67,2011.75 675.78,2015.14 677.57,2015.48 677.90,2018.79 676.05,2018.65 676.71,2020.21 672.14,2021.51 668.52,2025.21 669.82,2032.90 657.03,2032.61 647.23,2035.40 643.63,2029.59 646.77,2026.57 645.74,2023.14 642.13,2021.36 642.04,2013.86 650.72,2013.05 660.59,2013.32 660.54,2008.78"/>