<?xml version="1.0" encoding="UTF-8"?>

<!-- generated on 4/17/2016 9:56:51 PM by Netedit Version 0.25.0
<?xml version="1.0" encoding="UTF-8"?>

<configuration xmlns:xsi="http://www.w3.org/2001/XMLSchema-instance" xsi:noNamespaceSchemaLocation="http://sumo.dlr.de/xsd/netedit.exeConfiguration.xsd">

    <input>
        <sumo-net-file value="C:\Users\Toby\Desktop\Documents1\sumo-0.25.0\worldName.net\osm.net.xml"/>
    </input>

    <output>
        <output-file value="C:\Users\Toby\Desktop\Documents1\sumo-0.25.0\worldName.net\osm.net.xml"/>
        <plain-output-prefix value="C:\Users\Toby\Desktop\Documents1\sumo-0.25.0\worldName.net\test"/>
        <output.street-names value="true"/>
    </output>

    <processing>
        <no-turnarounds value="true"/>
        <offset.disable-normalization value="true"/>
        <lefthand value="false"/>
        <junctions.corner-detail value="5"/>
    </processing>

</configuration>
-->

<connections version="0.25" xmlns:xsi="http://www.w3.org/2001/XMLSchema-instance" xsi:noNamespaceSchemaLocation="http://sumo.dlr.de/xsd/connections_file.xsd">
    <connection from="-132318144#0" to="132326606" fromLane="0" toLane="0"/>
    <connection from="-132318144#0" to="132326603" fromLane="0" toLane="0"/>
    <connection from="-132318144#0" to="132318144#0" fromLane="0" toLane="0"/>

    <connection from="-132318144#1" to="-132319159#0" fromLane="0" toLane="0"/>
    <connection from="-132318144#1" to="-132318144#0" fromLane="0" toLane="0"/>
    <connection from="-132318144#1" to="132319159#1" fromLane="0" toLane="2"/>
    <connection from="-132318144#1" to="132318144#1" fromLane="0" toLane="0"/>

    <connection from="-132318144#2" to="132319160" fromLane="0" toLane="0"/>
    <connection from="-132318144#2" to="-132318144#1" fromLane="0" toLane="0"/>
    <connection from="-132318144#2" to="132318144#2" fromLane="0" toLane="0"/>

    <connection from="-132318144#3" to="-132318144#2" fromLane="0" toLane="0"/>
    <connection from="-132318144#3" to="-132318149" fromLane="0" toLane="0"/>
    <connection from="-132318144#3" to="132318144#3" fromLane="0" toLane="0"/>

    <connection from="-132318149" to="76609190#4" fromLane="0" toLane="0"/>
    <connection from="-132318149" to="-76609190#3" fromLane="0" toLane="0"/>
    <connection from="-132318149" to="132318149" fromLane="0" toLane="0"/>

    <connection from="-132319159#0" to="326982787#2" fromLane="0" toLane="0"/>
    <connection from="-132319159#0" to="-326982787#1" fromLane="0" toLane="0"/>
    <connection from="-132319159#0" to="132319159#0" fromLane="1" toLane="2"/>

    <connection from="-132319159#1" to="132318144#1" fromLane="0" toLane="0"/>
    <connection from="-132319159#1" to="-132319159#0" fromLane="0" toLane="0"/>
    <connection from="-132319159#1" to="-132319159#0" fromLane="1" toLane="1"/>
    <connection from="-132319159#1" to="-132318144#0" fromLane="1" toLane="0"/>
    <connection from="-132319159#1" to="132319159#1" fromLane="1" toLane="2"/>

    <connection from="-132319159#2" to="-132318144#3" fromLane="0" toLane="0"/>
    <connection from="-132319159#2" to="-132319159#1" fromLane="0" toLane="0"/>
    <connection from="-132319159#2" to="-132319159#1" fromLane="1" toLane="1"/>
    <connection from="-132319159#2" to="132319159#2" fromLane="1" toLane="2"/>

    <connection from="-132319160" to="-132318144#1" fromLane="0" toLane="0"/>
    <connection from="-132319160" to="132318144#2" fromLane="0" toLane="0"/>
    <connection from="-132319160" to="132319160" fromLane="0" toLane="0"/>

    <connection from="-132319465" to="-132326606" fromLane="0" toLane="0"/>
    <connection from="-132319465" to="132319466" fromLane="0" toLane="0"/>
    <connection from="-132319465" to="-132326607" fromLane="0" toLane="0"/>
    <connection from="-132319465" to="132319465" fromLane="0" toLane="0"/>

    <connection from="-132319466" to="-132326607" fromLane="0" toLane="0"/>
    <connection from="-132319466" to="132319465" fromLane="0" toLane="0"/>
    <connection from="-132319466" to="-132326606" fromLane="0" toLane="0"/>
    <connection from="-132319466" to="132319466" fromLane="0" toLane="0"/>

    <connection from="-132326603" to="132318144#0" fromLane="0" toLane="0"/>
    <connection from="-132326603" to="132326606" fromLane="0" toLane="0"/>
    <connection from="-132326603" to="132326603" fromLane="0" toLane="0"/>

    <connection from="-132326606" to="132326603" fromLane="0" toLane="0"/>
    <connection from="-132326606" to="132318144#0" fromLane="0" toLane="0"/>
    <connection from="-132326606" to="132326606" fromLane="0" toLane="0"/>

    <connection from="-132326607" to="76609190#9" fromLane="0" toLane="0"/>
    <connection from="-132326607" to="-76609185#0" fromLane="0" toLane="0"/>
    <connection from="-132326607" to="-76609190#8" fromLane="0" toLane="0"/>
    <connection from="-132326607" to="76609185#1" fromLane="0" toLane="0"/>

    <connection from="-164931277" to="164931277" fromLane="0" toLane="0"/>

    <connection from="-164931284#1" to="249243234#0" fromLane="0" toLane="0"/>
    <connection from="-164931284#1" to="164931284#1" fromLane="0" toLane="0"/>

    <connection from="-164931288" to="25004903#2" fromLane="0" toLane="0"/>

    <connection from="-164931290#0" to="164931287#0" fromLane="0" toLane="0"/>
    <connection from="-164931290#0" to="164931290#0" fromLane="0" toLane="0"/>

    <connection from="-164931290#1" to="-164931290#0" fromLane="0" toLane="0"/>
    <connection from="-164931290#1" to="47584080" fromLane="0" toLane="0"/>
    <connection from="-164931290#1" to="164931290#1" fromLane="0" toLane="0"/>

    <connection from="-164931616" to="-45437501#1" fromLane="0" toLane="0"/>
    <connection from="-164931616" to="45437501#2" fromLane="0" toLane="0"/>
    <connection from="-164931616" to="164931616" fromLane="0" toLane="0"/>

    <connection from="-164931617" to="164931617" fromLane="0" toLane="0"/>

    <connection from="-236702555" to="45774109#2" fromLane="0" toLane="2"/>
    <connection from="-236702555" to="45774109#2" fromLane="0" toLane="3"/>
    <connection from="-236702555" to="236702555" fromLane="0" toLane="0"/>

    <connection from="-249243234#0" to="164931284#1" fromLane="0" toLane="0"/>
    <connection from="-249243234#0" to="249243234#0" fromLane="0" toLane="0"/>

    <connection from="-249243234#1" to="-249243234#0" fromLane="0" toLane="0"/>
    <connection from="-249243234#1" to="249243235#0" fromLane="0" toLane="0"/>
    <connection from="-249243234#1" to="249243234#1" fromLane="0" toLane="0"/>

    <connection from="-249243235#0" to="249243234#1" fromLane="0" toLane="0"/>
    <connection from="-249243235#0" to="-249243234#0" fromLane="0" toLane="0"/>
    <connection from="-249243235#0" to="249243235#0" fromLane="0" toLane="0"/>

    <connection from="-249243235#1" to="249243236" fromLane="0" toLane="0"/>
    <connection from="-249243235#1" to="-249243235#0" fromLane="0" toLane="0"/>
    <connection from="-249243235#1" to="249243235#1" fromLane="0" toLane="0"/>

    <connection from="-249243236" to="-249243235#0" fromLane="0" toLane="0"/>
    <connection from="-249243236" to="249243235#1" fromLane="0" toLane="0"/>
    <connection from="-249243236" to="249243236" fromLane="0" toLane="0"/>

    <connection from="-326932211#0" to="-326932211#1" fromLane="0" toLane="0"/>
    <connection from="-326932211#0" to="326932211#0" fromLane="0" toLane="0"/>

    <connection from="-326932211#1" to="-326932211#0" fromLane="0" toLane="0"/>
    <connection from="-326932211#1" to="326932211#1" fromLane="0" toLane="0"/>

    <connection from="-326932214" to="29255885#3" fromLane="0" toLane="0"/>
    <connection from="-326932214" to="326932214" fromLane="0" toLane="0"/>

    <connection from="-326982787#0" to="-326982788" fromLane="0" toLane="0"/>
    <connection from="-326982787#0" to="326982787#0" fromLane="0" toLane="0"/>

    <connection from="-326982787#1" to="-326982787#0" fromLane="0" toLane="0"/>
    <connection from="-326982787#1" to="-132319466" fromLane="0" toLane="0"/>
    <connection from="-326982787#1" to="326982787#1" fromLane="0" toLane="0"/>

    <connection from="-326982787#2" to="-326982787#1" fromLane="0" toLane="0"/>
    <connection from="-326982787#2" to="132319159#0" fromLane="0" toLane="1"/>
    <connection from="-326982787#2" to="132319159#0" fromLane="0" toLane="2"/>
    <connection from="-326982787#2" to="326982787#2" fromLane="0" toLane="0"/>

    <connection from="-326982787#3" to="-326982787#2" fromLane="0" toLane="0"/>
    <connection from="-326982787#3" to="-132319160" fromLane="0" toLane="0"/>
    <connection from="-326982787#3" to="326982787#3" fromLane="0" toLane="0"/>

    <connection from="-326982787#4" to="-326982787#3" fromLane="0" toLane="0"/>
    <connection from="-326982787#4" to="-64969200" fromLane="0" toLane="0"/>
    <connection from="-326982787#4" to="326982787#4" fromLane="0" toLane="0"/>

    <connection from="-326982787#5" to="-326982787#4" fromLane="0" toLane="0"/>
    <connection from="-326982787#5" to="64969200" fromLane="0" toLane="0"/>
    <connection from="-326982787#5" to="326982787#5" fromLane="0" toLane="0"/>

    <connection from="-326982787#6" to="-326982787#5" fromLane="0" toLane="0"/>
    <connection from="-326982787#6" to="-132319159#2" fromLane="0" toLane="1"/>
    <connection from="-326982787#6" to="326982787#6" fromLane="0" toLane="0"/>

    <connection from="-326982788" to="-76609190#9" fromLane="0" toLane="0"/>
    <connection from="-326982788" to="326982788" fromLane="0" toLane="1"/>

    <connection from="-326986972" to="164931285#0" fromLane="0" toLane="0"/>
    <connection from="-326986972" to="45774287#0" fromLane="0" toLane="0"/>
    <connection from="-326986972" to="326986972" fromLane="0" toLane="0"/>

    <connection from="-326986977#0" to="326987774#5" fromLane="0" toLane="0"/>
    <connection from="-326986977#0" to="326986976" fromLane="0" toLane="0"/>

    <connection from="-326986977#1" to="-326986977#0" fromLane="0" toLane="0"/>
    <connection from="-326986977#1" to="326986985" fromLane="0" toLane="0"/>
    <connection from="-326986977#1" to="326986977#1" fromLane="0" toLane="0"/>

    <connection from="-326986985" to="326986977#1" fromLane="0" toLane="0"/>
    <connection from="-326986985" to="-326986977#0" fromLane="0" toLane="0"/>
    <connection from="-326986985" to="326986985" fromLane="0" toLane="0"/>

    <connection from="-45437501#0" to="29255885#5" fromLane="0" toLane="0"/>
    <connection from="-45437501#0" to="45437501#0" fromLane="0" toLane="0"/>

    <connection from="-45437501#1" to="-45437501#0" fromLane="0" toLane="0"/>
    <connection from="-45437501#1" to="45437501#1" fromLane="0" toLane="0"/>

    <connection from="-45437501#2" to="-45437501#1" fromLane="0" toLane="0"/>
    <connection from="-45437501#2" to="45437501#2" fromLane="0" toLane="0"/>
    <connection from="-45437501#2" to="164931616" fromLane="0" toLane="0"/>

    <connection from="-45437501#3" to="-45437501#2" fromLane="0" toLane="0"/>
    <connection from="-45437501#3" to="164931275" fromLane="0" toLane="0"/>
    <connection from="-45437501#3" to="45437501#3" fromLane="0" toLane="0"/>

    <connection from="-45774276#0" to="45774276#0" fromLane="0" toLane="0"/>
    <connection from="-45774276#0" to="29255886#5" fromLane="0" toLane="0"/>

    <connection from="-45774276#1" to="-45774276#0" fromLane="0" toLane="0"/>
    <connection from="-45774276#1" to="45774276#1" fromLane="0" toLane="0"/>

    <connection from="-45774276#2" to="164931618" fromLane="0" toLane="0"/>
    <connection from="-45774276#2" to="-45774276#1" fromLane="0" toLane="0"/>
    <connection from="-45774276#2" to="45774276#2" fromLane="0" toLane="0"/>

    <connection from="-45774280" to="45774280" fromLane="0" toLane="0"/>

    <connection from="-47584080" to="164931290#1" fromLane="0" toLane="0"/>
    <connection from="-47584080" to="-164931290#0" fromLane="0" toLane="0"/>
    <connection from="-47584080" to="47584080" fromLane="0" toLane="0"/>

    <connection from="-47584422#0" to="56651864#2" fromLane="0" toLane="0"/>
    <connection from="-47584422#0" to="-56651864#1" fromLane="0" toLane="0"/>
    <connection from="-47584422#0" to="56640798" fromLane="0" toLane="0"/>

    <connection from="-47584422#1" to="47584424" fromLane="0" toLane="0"/>
    <connection from="-47584422#1" to="-47584422#0" fromLane="0" toLane="0"/>
    <connection from="-47584422#1" to="47584422#1" fromLane="0" toLane="0"/>

    <connection from="-47584424" to="-47584422#0" fromLane="0" toLane="0"/>
    <connection from="-47584424" to="47584422#1" fromLane="0" toLane="0"/>
    <connection from="-47584424" to="47584424" fromLane="0" toLane="0"/>

    <connection from="-47584425#0" to="-56651864#0" fromLane="0" toLane="0"/>
    <connection from="-47584425#0" to="56651864#1" fromLane="0" toLane="0"/>
    <connection from="-47584425#0" to="47584530" fromLane="0" toLane="0"/>
    <connection from="-47584425#0" to="47584425#0" fromLane="0" toLane="0"/>

    <connection from="-47584425#1" to="-47584426#0" fromLane="0" toLane="0"/>
    <connection from="-47584425#1" to="-47584425#0" fromLane="0" toLane="0"/>
    <connection from="-47584425#1" to="47584426#1" fromLane="0" toLane="0"/>
    <connection from="-47584425#1" to="47584425#1" fromLane="0" toLane="0"/>

    <connection from="-47584426#0" to="-56651866#0" fromLane="0" toLane="0"/>
    <connection from="-47584426#0" to="56651866#1" fromLane="0" toLane="0"/>
    <connection from="-47584426#0" to="47584426#0" fromLane="0" toLane="0"/>

    <connection from="-47584426#1" to="47584425#1" fromLane="0" toLane="0"/>
    <connection from="-47584426#1" to="-47584426#0" fromLane="0" toLane="0"/>
    <connection from="-47584426#1" to="-47584425#0" fromLane="0" toLane="0"/>
    <connection from="-47584426#1" to="47584426#1" fromLane="0" toLane="0"/>

    <connection from="-47584530" to="47584425#0" fromLane="0" toLane="0"/>
    <connection from="-47584530" to="-56651864#0" fromLane="0" toLane="0"/>
    <connection from="-47584530" to="56651864#1" fromLane="0" toLane="0"/>
    <connection from="-47584530" to="47584530" fromLane="0" toLane="0"/>

    <connection from="-53278515" to="76609190#3" fromLane="0" toLane="0"/>
    <connection from="-53278515" to="-76609190#2" fromLane="0" toLane="0"/>
    <connection from="-53278515" to="53278515" fromLane="0" toLane="0"/>

    <connection from="-53349605" to="-76609190#1" fromLane="0" toLane="0"/>
    <connection from="-53349605" to="76609190#2" fromLane="0" toLane="0"/>
    <connection from="-53349605" to="53349605" fromLane="0" toLane="0"/>

    <connection from="-56651863" to="-56651864#2" fromLane="0" toLane="0"/>
    <connection from="-56651863" to="-47584424" fromLane="0" toLane="0"/>
    <connection from="-56651863" to="56651863" fromLane="0" toLane="0"/>

    <connection from="-56651864#0" to="47584426#0" fromLane="0" toLane="0"/>
    <connection from="-56651864#0" to="-56651866#0" fromLane="0" toLane="0"/>
    <connection from="-56651864#0" to="56651866#1" fromLane="0" toLane="0"/>

    <connection from="-56651864#1" to="47584530" fromLane="0" toLane="0"/>
    <connection from="-56651864#1" to="47584425#0" fromLane="0" toLane="0"/>
    <connection from="-56651864#1" to="-56651864#0" fromLane="0" toLane="0"/>
    <connection from="-56651864#1" to="56651864#1" fromLane="0" toLane="0"/>

    <connection from="-56651864#2" to="-56651864#1" fromLane="0" toLane="0"/>
    <connection from="-56651864#2" to="56640798" fromLane="0" toLane="0"/>
    <connection from="-56651864#2" to="56651864#2" fromLane="0" toLane="0"/>

    <connection from="-56651865#0" to="-56651863" fromLane="0" toLane="0"/>
    <connection from="-56651865#0" to="-47584422#1" fromLane="0" toLane="0"/>
    <connection from="-56651865#0" to="56651865#0" fromLane="0" toLane="0"/>

    <connection from="-56651865#1" to="-47584426#1" fromLane="0" toLane="0"/>
    <connection from="-56651865#1" to="-47584530" fromLane="0" toLane="0"/>
    <connection from="-56651865#1" to="-56651865#0" fromLane="0" toLane="0"/>
    <connection from="-56651865#1" to="56651865#1" fromLane="0" toLane="0"/>

    <connection from="-56651866#0" to="-47584425#1" fromLane="0" toLane="0"/>
    <connection from="-56651866#0" to="-56651865#1" fromLane="0" toLane="0"/>
    <connection from="-56651866#0" to="56651865#2" fromLane="0" toLane="0"/>

    <connection from="-64969200" to="326982787#5" fromLane="0" toLane="0"/>
    <connection from="-64969200" to="-326982787#4" fromLane="0" toLane="0"/>
    <connection from="-64969200" to="64969200" fromLane="0" toLane="0"/>

    <connection from="-64970026" to="76609190#8" fromLane="0" toLane="0"/>
    <connection from="-64970026" to="-76609190#7" fromLane="0" toLane="0"/>
    <connection from="-64970026" to="64970026" fromLane="0" toLane="0"/>

    <connection from="-76609185#0" to="29255885#2" fromLane="0" toLane="0"/>
    <connection from="-76609185#0" to="76609185#0" fromLane="0" toLane="0"/>

    <connection from="-76609190#0" to="76609190#0" fromLane="0" toLane="0"/>

    <connection from="-76609190#1" to="-76609190#0" fromLane="0" toLane="0"/>
    <connection from="-76609190#1" to="-326982787#6" fromLane="0" toLane="0"/>
    <connection from="-76609190#1" to="76609190#1" fromLane="0" toLane="0"/>

    <connection from="-76609190#2" to="53349605" fromLane="0" toLane="0"/>
    <connection from="-76609190#2" to="-76609190#1" fromLane="0" toLane="0"/>
    <connection from="-76609190#2" to="76609190#2" fromLane="0" toLane="0"/>

    <connection from="-76609190#3" to="-76609190#2" fromLane="0" toLane="0"/>
    <connection from="-76609190#3" to="53278515" fromLane="0" toLane="0"/>
    <connection from="-76609190#3" to="76609190#3" fromLane="0" toLane="0"/>

    <connection from="-76609190#4" to="-76609190#3" fromLane="0" toLane="0"/>
    <connection from="-76609190#4" to="132318149" fromLane="0" toLane="0"/>
    <connection from="-76609190#4" to="76609190#4" fromLane="0" toLane="0"/>

    <connection from="-76609190#5" to="-76609190#4" fromLane="0" toLane="0"/>
    <connection from="-76609190#5" to="-132326603" fromLane="0" toLane="0"/>
    <connection from="-76609190#5" to="76609190#5" fromLane="0" toLane="0"/>

    <connection from="-76609190#6" to="-76609190#5" fromLane="0" toLane="0"/>
    <connection from="-76609190#6" to="-132319465" fromLane="0" toLane="0"/>
    <connection from="-76609190#6" to="76609190#6" fromLane="0" toLane="0"/>

    <connection from="-76609190#7" to="-76609190#6" fromLane="0" toLane="0"/>
    <connection from="-76609190#7" to="-64970026" fromLane="0" toLane="0"/>
    <connection from="-76609190#7" to="76609190#7" fromLane="0" toLane="0"/>

    <connection from="-76609190#8" to="-76609190#7" fromLane="0" toLane="0"/>
    <connection from="-76609190#8" to="64970026" fromLane="0" toLane="0"/>
    <connection from="-76609190#8" to="76609190#8" fromLane="0" toLane="0"/>

    <connection from="-76609190#9" to="-76609185#0" fromLane="0" toLane="0"/>
    <connection from="-76609190#9" to="-76609190#8" fromLane="0" toLane="0"/>
    <connection from="-76609190#9" to="76609185#1" fromLane="0" toLane="0"/>
    <connection from="-76609190#9" to="76609190#9" fromLane="0" toLane="0"/>

    <connection from="132318144#0" to="132319159#1" fromLane="0" toLane="0"/>
    <connection from="132318144#0" to="132318144#1" fromLane="0" toLane="0"/>
    <connection from="132318144#0" to="-132319159#0" fromLane="0" toLane="1"/>
    <connection from="132318144#0" to="-132318144#0" fromLane="0" toLane="0"/>

    <connection from="132318144#1" to="132318144#2" fromLane="0" toLane="0"/>
    <connection from="132318144#1" to="132319160" fromLane="0" toLane="0"/>
    <connection from="132318144#1" to="-132318144#1" fromLane="0" toLane="0"/>

    <connection from="132318144#2" to="-132318149" fromLane="0" toLane="0"/>
    <connection from="132318144#2" to="132318144#3" fromLane="0" toLane="0"/>
    <connection from="132318144#2" to="-132318144#2" fromLane="0" toLane="0"/>

    <connection from="132318144#3" to="-132319159#1" fromLane="0" toLane="0"/>
    <connection from="132318144#3" to="132319159#2" fromLane="0" toLane="1"/>
    <connection from="132318144#3" to="132319159#2" fromLane="0" toLane="2"/>
    <connection from="132318144#3" to="-132318144#3" fromLane="0" toLane="0"/>

    <connection from="132318149" to="132318144#3" fromLane="0" toLane="0"/>
    <connection from="132318149" to="-132318144#2" fromLane="0" toLane="0"/>
    <connection from="132318149" to="-132318149" fromLane="0" toLane="0"/>

    <connection from="132319159#0" to="-132318144#0" fromLane="0" toLane="0"/>
    <connection from="132319159#0" to="132319159#1" fromLane="0" toLane="0"/>
    <connection from="132319159#0" to="132319159#1" fromLane="1" toLane="1"/>
    <connection from="132319159#0" to="132319159#1" fromLane="2" toLane="2"/>
    <connection from="132319159#0" to="132318144#1" fromLane="2" toLane="0"/>
    <connection from="132319159#0" to="-132319159#0" fromLane="2" toLane="1"/>

    <connection from="132319159#1" to="132319159#2" fromLane="0" toLane="0"/>
    <connection from="132319159#1" to="132319159#2" fromLane="1" toLane="1"/>
    <connection from="132319159#1" to="132319159#2" fromLane="2" toLane="2"/>
    <connection from="132319159#1" to="-132318144#3" fromLane="2" toLane="0"/>
    <connection from="132319159#1" to="-132319159#1" fromLane="2" toLane="1"/>

    <connection from="132319159#2" to="326982787#6" fromLane="0" toLane="0"/>
    <connection from="132319159#2" to="-326982787#5" fromLane="1" toLane="0"/>
    <connection from="132319159#2" to="-132319159#2" fromLane="2" toLane="1"/>

    <connection from="132319160" to="326982787#3" fromLane="0" toLane="0"/>
    <connection from="132319160" to="-326982787#2" fromLane="0" toLane="0"/>
    <connection from="132319160" to="-132319160" fromLane="0" toLane="0"/>

    <connection from="132319465" to="76609190#6" fromLane="0" toLane="0"/>
    <connection from="132319465" to="-76609190#5" fromLane="0" toLane="0"/>
    <connection from="132319465" to="-132319465" fromLane="0" toLane="0"/>

    <connection from="132319466" to="326982787#1" fromLane="0" toLane="0"/>
    <connection from="132319466" to="-326982787#0" fromLane="0" toLane="0"/>
    <connection from="132319466" to="-132319466" fromLane="0" toLane="0"/>

    <connection from="132326603" to="76609190#5" fromLane="0" toLane="0"/>
    <connection from="132326603" to="-76609190#4" fromLane="0" toLane="0"/>
    <connection from="132326603" to="-132326603" fromLane="0" toLane="0"/>

    <connection from="132326606" to="132319466" fromLane="0" toLane="0"/>
    <connection from="132326606" to="-132326607" fromLane="0" toLane="0"/>
    <connection from="132326606" to="132319465" fromLane="0" toLane="0"/>
    <connection from="132326606" to="-132326606" fromLane="0" toLane="0"/>

    <connection from="164931275" to="45437501#1" fromLane="0" toLane="0"/>
    <connection from="164931275" to="-45437501#0" fromLane="0" toLane="0"/>

    <connection from="164931276#0" to="164931276#1" fromLane="0" toLane="0"/>
    <connection from="164931276#0" to="164931285#1" fromLane="0" toLane="0"/>

    <connection from="164931276#1" to="164931279#1" fromLane="0" toLane="0"/>

    <connection from="164931277" to="-164931277" fromLane="0" toLane="0"/>

    <connection from="164931279#0" to="164931279#1" fromLane="0" toLane="0"/>
    <connection from="164931279#0" to="164931279#1" fromLane="1" toLane="1"/>

    <connection from="164931279#1" to="164931285#0" fromLane="0" toLane="0"/>
    <connection from="164931279#1" to="45774287#0" fromLane="0" toLane="0"/>
    <connection from="164931279#1" to="326986972" fromLane="1" toLane="0"/>

    <connection from="164931284#1" to="164931279#0" fromLane="0" toLane="1"/>
    <connection from="164931284#1" to="-164931284#1" fromLane="0" toLane="0"/>

    <connection from="164931285#0" to="164931276#1" fromLane="0" toLane="0"/>
    <connection from="164931285#0" to="164931285#1" fromLane="0" toLane="0"/>

    <connection from="164931285#1" to="164931287#4" fromLane="0" toLane="0"/>

    <connection from="164931287#0" to="164931287#1" fromLane="0" toLane="0"/>
    <connection from="164931287#0" to="164931291#2" fromLane="0" toLane="0"/>

    <connection from="164931287#1" to="164931287#2" fromLane="0" toLane="0"/>
    <connection from="164931287#1" to="29255886#3" fromLane="0" toLane="0"/>

    <connection from="164931287#2" to="164931276#0" fromLane="0" toLane="0"/>
    <connection from="164931287#2" to="164931287#3" fromLane="0" toLane="0"/>

    <connection from="164931287#3" to="164931287#4" fromLane="0" toLane="0"/>

    <connection from="164931287#4" to="164931279#0" fromLane="0" toLane="0"/>
    <connection from="164931287#4" to="-164931284#1" fromLane="0" toLane="0"/>

    <connection from="164931290#0" to="47584080" fromLane="0" toLane="0"/>
    <connection from="164931290#0" to="164931290#1" fromLane="0" toLane="0"/>
    <connection from="164931290#0" to="-164931290#0" fromLane="0" toLane="0"/>

    <connection from="164931290#1" to="-164931290#1" fromLane="0" toLane="0"/>

    <connection from="164931291#0" to="164931291#1" fromLane="0" toLane="0"/>
    <connection from="164931291#0" to="45774287#1" fromLane="0" toLane="0"/>

    <connection from="164931291#1" to="164931287#1" fromLane="0" toLane="0"/>
    <connection from="164931291#1" to="164931291#2" fromLane="0" toLane="0"/>

    <connection from="164931291#2" to="29255886#4-AddedOnRampEdge" fromLane="0" toLane="1" pass="1"/>

    <connection from="164931616" to="64967974" fromLane="0" toLane="0"/>
    <connection from="164931616" to="-164931616" fromLane="0" toLane="0"/>

    <connection from="164931617" to="164931619" fromLane="0" toLane="0"/>
    <connection from="164931617" to="-164931617" fromLane="0" toLane="0"/>

    <connection from="164931618" to="164931619" fromLane="0" toLane="0"/>
    <connection from="164931618" to="-164931617" fromLane="0" toLane="0"/>

    <connection from="164931619" to="-45774276#0" fromLane="0" toLane="0"/>
    <connection from="164931619" to="45774276#1" fromLane="0" toLane="0"/>

    <connection from="236702555" to="29255886#1" fromLane="0" toLane="0"/>
    <connection from="236702555" to="-236702555" fromLane="0" toLane="0"/>

    <connection from="249243234#0" to="249243235#0" fromLane="0" toLane="0"/>
    <connection from="249243234#0" to="249243234#1" fromLane="0" toLane="0"/>
    <connection from="249243234#0" to="-249243234#0" fromLane="0" toLane="0"/>

    <connection from="249243234#1" to="-249243234#1" fromLane="0" toLane="0"/>

    <connection from="249243235#0" to="249243235#1" fromLane="0" toLane="0"/>
    <connection from="249243235#0" to="249243236" fromLane="0" toLane="0"/>
    <connection from="249243235#0" to="-249243235#0" fromLane="0" toLane="0"/>

    <connection from="249243235#1" to="-249243235#1" fromLane="0" toLane="0"/>

    <connection from="249243236" to="-249243236" fromLane="0" toLane="0"/>

    <connection from="25004903#2" to="-164931284#1" fromLane="0" toLane="0"/>
    <connection from="25004903#2" to="164931279#0" fromLane="0" toLane="1"/>

    <connection from="29255885#1" to="76609185#0" fromLane="0" toLane="0"/>
    <connection from="29255885#1" to="29255885#2" fromLane="0" toLane="0"/>

    <connection from="29255885#2" to="29255885#3" fromLane="0" toLane="0"/>
    <connection from="29255885#2" to="326932214" fromLane="0" toLane="0"/>

    <connection from="29255885#3" to="-53349605" fromLane="0" toLane="0"/>
    <connection from="29255885#3" to="29255885#4" fromLane="0" toLane="0"/>

    <connection from="29255885#4" to="29255885#5" fromLane="0" toLane="0"/>
    <connection from="29255885#4" to="45437501#0" fromLane="0" toLane="0"/>

    <connection from="29255885#5" to="29255885#1" fromLane="0" toLane="0"/>
    <connection from="29255885#5" to="-45437501#3" fromLane="0" toLane="0"/>

    <connection from="29255886#1" to="29255886#1-AddedOffRampEdge" fromLane="0" toLane="0"/>
    <connection from="29255886#1" to="29255886#1-AddedOffRampEdge" fromLane="0" toLane="1"/>

    <connection from="29255886#1-AddedOffRampEdge" to="29255886#2" fromLane="0" toLane="0"/>
    <connection from="29255886#1-AddedOffRampEdge" to="164931291#0" fromLane="1" toLane="0"/>

    <connection from="29255886#2" to="164931287#2" fromLane="0" toLane="0"/>
    <connection from="29255886#2" to="29255886#3" fromLane="0" toLane="0"/>

    <connection from="29255886#3" to="29255886#4-AddedOnRampEdge" fromLane="0" toLane="0" pass="1"/>

    <connection from="29255886#4" to="45774276#0" fromLane="0" toLane="0"/>
    <connection from="29255886#4" to="29255886#5" fromLane="0" toLane="0"/>

    <connection from="29255886#4-AddedOnRampEdge" to="29255886#4" fromLane="1" toLane="0"/>

    <connection from="29255886#5" to="-236702555" fromLane="0" toLane="0"/>
    <connection from="29255886#5" to="29255886#1" fromLane="0" toLane="0"/>

    <connection from="326932211#0" to="326932211#1" fromLane="0" toLane="0"/>
    <connection from="326932211#0" to="-326932211#0" fromLane="0" toLane="0"/>

    <connection from="326932211#1" to="326932211#0" fromLane="0" toLane="0"/>
    <connection from="326932211#1" to="-326932211#1" fromLane="0" toLane="0"/>

    <connection from="326932214" to="-326932214" fromLane="0" toLane="0"/>

    <connection from="326982787#0" to="-132319466" fromLane="0" toLane="0"/>