<?xml version="1.0" encoding="UTF-8"?>

<!-- generated on 4/17/2016 9:56:51 PM by Netedit Version 0.25.0
<?xml version="1.0" encoding="UTF-8"?>

<configuration xmlns:xsi="http://www.w3.org/2001/XMLSchema-instance" xsi:noNamespaceSchemaLocation="http://sumo.dlr.de/xsd/netedit.exeConfiguration.xsd">

    <input>
        <sumo-net-file value="C:\Users\Toby\Desktop\Documents1\sumo-0.25.0\worldName.net\osm.net.xml"/>
    </input>

    <output>
        <output-file value="C:\Users\Toby\Desktop\Documents1\sumo-0.25.0\worldName.net\osm.net.xml"/>
        <plain-output-prefix value="C:\Users\Toby\Desktop\Documents1\sumo-0.25.0\worldName.net\test"/>
        <output.street-names value="true"/>
    </output>

    <processing>
        <no-turnarounds value="true"/>
        <offset.disable-normalization value="true"/>
        <lefthand value="false"/>
        <junctions.corner-detail value="5"/>
    </processing>

</configuration>
-->

<tlLogics version="0.25" xmlns:xsi="http://www.w3.org/2001/XMLSchema-instance" xsi:noNamespaceSchemaLocation="http://sumo.dlr.de/xsd/tllogic_file.xsd">
</tlLogics>
