<?xml version="1.0" encoding="UTF-8"?>

<!-- generated on 4/17/2016 9:56:51 PM by Netedit Version 0.25.0
<?xml version="1.0" encoding="UTF-8"?>

<configuration xmlns:xsi="http://www.w3.org/2001/XMLSchema-instance" xsi:noNamespaceSchemaLocation="http://sumo.dlr.de/xsd/netedit.exeConfiguration.xsd">

    <input>
        <sumo-net-file value="C:\Users\Toby\Desktop\Documents1\sumo-0.25.0\worldName.net\osm.net.xml"/>
    </input>

    <output>
        <output-file value="C:\Users\Toby\Desktop\Documents1\sumo-0.25.0\worldName.net\osm.net.xml"/>
        <plain-output-prefix value="C:\Users\Toby\Desktop\Documents1\sumo-0.25.0\worldName.net\test"/>
        <output.street-names value="true"/>
    </output>

    <processing>
        <no-turnarounds value="true"/>
        <offset.disable-normalization value="true"/>
        <lefthand value="false"/>
        <junctions.corner-detail value="5"/>
    </processing>

</configuration>
-->

<edges version="0.25" xmlns:xsi="http://www.w3.org/2001/XMLSchema-instance" xsi:noNamespaceSchemaLocation="http://sumo.dlr.de/xsd/edges_file.xsd">
    <edge id="-132318144#0" from="674127132" to="1455836008" name="City Circuit" priority="5" type="highway.unclassified" numLanes="1" speed="13.89" shape="1129.97,2280.85 1124.83,2279.37 1117.53,2277.04 1110.81,2275.12 1104.21,2273.19 1097.34,2271.04 1090.00,2268.77 1082.72,2266.39 1075.65,2264.12 1068.85,2262.08 1062.11,2259.94 1055.38,2257.79 1049.05,2255.87 1042.98,2253.96 1037.39,2252.17 1017.99,2244.86" disallow="tram rail_urban rail rail_electric ship"/>
    <edge id="-132318144#1" from="1455780421" to="674127132" name="City Circuit" priority="5" type="highway.unclassified" numLanes="1" speed="13.89" shape="1185.27,2299.62 1182.86,2298.81 1175.72,2296.54 1160.65,2291.10 1155.40,2289.21 1150.55,2287.54 1146.51,2286.12 1142.47,2284.81 1138.14,2283.64 1134.12,2282.29 1129.97,2280.85" disallow="tram rail_urban rail rail_electric ship"/>
    <edge id="-132318144#2" from="1455772153" to="1455780421" name="City Circuit" priority="5" type="highway.unclassified" numLanes="1" speed="13.89" shape="1330.76,2263.50 1326.97,2276.10 1324.20,2281.61 1320.97,2286.88 1317.27,2291.92 1313.09,2296.94 1308.18,2301.29 1302.81,2305.07 1297.11,2308.40 1291.02,2310.82 1284.81,2312.69 1278.42,2313.67 1271.84,2313.86 1265.12,2313.83 1258.49,2313.35 1251.98,2313.31 1245.21,2313.39 1238.78,2312.48 1231.94,2311.89 1225.04,2310.96 1218.16,2309.59 1211.28,2307.77 1204.27,2305.73 1197.13,2303.46 1189.93,2301.19 1185.27,2299.62" disallow="tram rail_urban rail rail_electric ship"/>
    <edge id="-132318144#3" from="1455780387" to="1455772153" name="City Circuit" priority="5" type="highway.unclassified" numLanes="1" speed="13.89" shape="1185.17,2111.27 1190.91,2113.82 1308.00,2161.97 1313.95,2165.09 1317.77,2168.02 1321.46,2172.12 1324.14,2175.69 1326.52,2179.09 1328.99,2183.01 1330.79,2186.94 1332.53,2193.99 1334.01,2201.25 1335.34,2208.63 1336.47,2216.11 1337.05,2223.58 1336.96,2230.81 1336.34,2237.80 1335.25,2244.01 1333.98,2249.77 1332.85,2254.98 1331.73,2259.51 1330.76,2263.50" disallow="tram rail_urban rail rail_electric ship"/>
    <edge id="-132318149" from="1455772153" to="902871438" name="City Circuit" priority="5" type="highway.unclassified" numLanes="1" speed="13.89" shape="1330.76,2263.50 1326.20,2262.08 1321.65,2260.56 1319.92,2259.72 1317.98,2258.66 1313.62,2256.90 1308.43,2255.23 1302.64,2253.43 1296.44,2251.52 1290.04,2249.38 1283.18,2247.12 1276.11,2244.85 1269.17,2242.59 1262.17,2240.32 1255.03,2238.05 1247.62,2235.67 1240.35,2233.40 1233.27,2231.24 1229.67,2230.12 1226.40,2229.09 1219.60,2227.05 1213.00,2224.80 1206.27,2222.54 1199.61,2220.17 1193.01,2217.91 1186.55,2215.66 1180.29,2213.52 1174.16,2211.50 1168.37,2209.70 1161.76,2207.77 1157.31,2206.57 1152.60,2205.25 1148.59,2203.86 1143.98,2202.39 1139.87,2201.08 1135.96,2199.99 1132.19,2198.80 1128.08,2197.60 1123.29,2196.16 1117.84,2194.48 1111.98,2192.69 1105.91,2190.89 1099.65,2188.97 1092.78,2186.82 1085.84,2184.56 1078.90,2182.29 1071.83,2180.03 1064.76,2177.87 1057.68,2175.83 1050.48,2173.56 1043.48,2171.18 1036.87,2169.15 1030.13,2167.45 1023.66,2165.75 1018.33,2164.19 1013.89,2162.54 1010.55,2161.45 1008.17,2160.67" disallow="tram rail_urban rail rail_electric ship"/>
    <edge id="-132319159#0" from="674127132" to="1455780431" name="City Circuit" priority="5" type="highway.unclassified" numLanes="2" speed="13.89" shape="1129.97,2280.85 1129.15,2283.19 1127.27,2288.82 1125.39,2294.24 1123.64,2299.54 1121.83,2304.95 1119.81,2310.81 1117.72,2316.55 1115.63,2322.29 1113.68,2327.92 1111.93,2333.23 1110.54,2337.98 1109.28,2341.78 1106.33,2350.61" disallow="tram rail_urban rail rail_electric ship"/>
    <edge id="-132319159#1" from="1455780387" to="674127132" name="City Circuit" priority="5" type="highway.unclassified" numLanes="2" speed="13.89" shape="1185.17,2111.27 1183.89,2115.34 1181.79,2121.86 1179.75,2128.16 1177.65,2134.35 1175.69,2140.42 1173.80,2146.50 1171.76,2152.69 1169.59,2158.99 1167.42,2165.39 1165.32,2171.58 1163.30,2177.55 1161.41,2183.29 1159.60,2188.71 1157.79,2194.01 1156.12,2198.87 1154.60,2203.62 1153.28,2207.93 1152.12,2211.47 1146.72,2229.38 1145.98,2232.37 1144.88,2235.90 1143.65,2239.77 1142.34,2243.97 1140.88,2248.39 1139.36,2253.03 1137.76,2257.89 1136.10,2262.86 1134.36,2267.83 1132.63,2272.80 1131.03,2277.78 1129.97,2280.85" disallow="tram rail_urban rail rail_electric ship"/>
    <edge id="-132319159#2" from="1455780375" to="1455780387" name="City Circuit" priority="5" type="highway.unclassified" numLanes="2" speed="13.89" shape="1204.80,2049.97 1204.55,2050.58 1203.54,2053.45 1202.09,2057.43 1200.42,2062.51 1198.53,2068.48 1196.56,2074.89 1194.59,2081.41 1192.48,2088.15 1190.30,2095.01 1188.18,2101.86 1186.01,2108.60 1185.17,2111.27" disallow="tram rail_urban rail rail_electric ship"/>
    <edge id="-132319160" from="902685781" to="1455780421" name="City Circuit" priority="5" type="highway.unclassified" numLanes="1" speed="13.89" shape="1178.06,2342.11 1179.03,2338.88 1179.94,2333.36 1180.39,2331.36 1180.73,2328.25 1181.30,2323.93 1182.02,2318.82 1185.27,2299.62" disallow="tram rail_urban rail rail_electric ship"/>
    <edge id="-132319465" from="1455785678" to="1455765794" name="City Circuit" priority="5" type="highway.unclassified" numLanes="1" speed="13.89" disallow="tram rail_urban rail rail_electric ship"/>
    <edge id="-132319466" from="902872109" to="1455765794" name="City Circuit" priority="5" type="highway.unclassified" numLanes="1" speed="13.89" shape="1045.56,2398.77 1037.32,2393.41 977.41,2374.07" disallow="tram rail_urban rail rail_electric ship"/>
    <edge id="-132326603" from="902685950" to="1455836008" name="City Circuit" priority="5" type="highway.unclassified" numLanes="1" speed="13.89" shape="967.18,2222.41 970.49,2225.59 972.75,2227.97 975.54,2230.59 978.81,2232.89 991.84,2236.46 996.25,2237.92 1000.87,2239.54 1006.29,2240.98 1017.99,2244.86" disallow="tram rail_urban rail rail_electric ship"/>
    <edge id="-132326606" from="1455765794" to="1455836008" name="City Circuit" priority="5" type="highway.unclassified" numLanes="1" speed="13.89" disallow="tram rail_urban rail rail_electric ship"/>
    <edge id="-132326607" from="1455765794" to="902871780" name="City Circuit" priority="5" type="highway.unclassified" numLanes="1" speed="13.89" shape="977.41,2374.07 933.96,2512.51 875.26,2501.72" disallow="tram rail_urban rail rail_electric ship"/>
    <edge id="-164931277" from="1765245577" to="795853972" priority="2" type="highway.service" numLanes="1" speed="5.56" shape="835.76,2745.28 831.04,2744.81 824.71,2743.23 818.57,2741.09 812.45,2738.06 807.62,2734.52 803.53,2730.43 799.75,2726.02 790.92,2712.87 788.67,2708.52 787.54,2704.15 787.12,2698.33 787.79,2690.59" allow="delivery bicycle pedestrian"/>
    <edge id="-164931284#1" from="cluster_1765245219_1765245290" to="582915645" priority="5" type="highway.unclassified" numLanes="1" speed="8.94" shape="596.67,1971.35 596.29,1964.52 595.07,1953.52 590.35,1923.93 589.24,1918.19 586.92,1907.83 582.47,1893.77 575.59,1873.26 459.24,1572.78" disallow="tram rail_urban rail rail_electric ship"/>
    <edge id="-164931288" from="cluster_1765245219_1765245290" to="1765259750" name="Mira Drive" priority="5" type="highway.unclassified" numLanes="1" speed="13.89" shape="593.99,1999.11 574.10,2003.04 574.95,2018.89 575.40,2031.59 563.38,2049.48 560.32,2056.32 560.16,2063.92 562.71,2080.67 561.47,2087.54 554.55,2091.39 534.30,2094.22 518.46,2086.44 507.08,2074.58 496.22,2046.41 483.00,2018.38 482.11,2000.21 506.04,1936.13 506.65,1924.71 504.54,1912.51 501.43,1899.03 498.55,1888.98 494.39,1879.46 489.85,1870.65 483.92,1863.20 477.28,1856.99 469.24,1851.58 461.64,1846.37 454.96,1840.04 450.11,1832.78 442.89,1812.22 438.38,1798.59 436.22,1791.36 434.14,1782.22 432.82,1770.20 431.06,1752.11 365.13,1761.68 328.42,1767.88 319.84,1769.52 295.74,1775.09 291.46,1776.28 285.13,1778.41 281.91,1779.26 279.22,1779.50 276.13,1779.31 274.42,1779.05" disallow="tram rail_urban rail rail_electric ship"/>
    <edge id="-164931290#0" from="605404733" to="582915704" priority="2" type="highway.service" numLanes="1" speed="5.56" allow="delivery bicycle pedestrian"/>
    <edge id="-164931290#1" from="1765245591" to="605404733" priority="2" type="highway.service" numLanes="1" speed="5.56" allow="delivery bicycle pedestrian"/>
    <edge id="-164931616" from="795853984" to="1765245032" priority="2" type="highway.service" numLanes="1" speed="5.56" allow="delivery bicycle pedestrian"/>
    <edge id="-164931617" from="1765252856" to="1765252879" priority="2" type="highway.service" numLanes="1" speed="5.56" allow="delivery bicycle pedestrian"/>
    <edge id="-236702555" from="2446942545" to="2446942533" name="MIRA No.1 High Speed Circuit (Exit)" priority="2" type="highway.service" numLanes="1" speed="5.56" shape="866.46,2763.22 869.41,2770.40 872.41,2775.01 877.61,2778.20 882.49,2779.75 892.29,2780.51 902.10,2780.90 917.38,2780.87 927.93,2780.55 939.61,2778.99 1020.51,2763.31 1119.30,2744.40 1157.29,2737.47" allow="delivery bicycle pedestrian"/>
    <edge id="-249243234#0" from="2558808427" to="582915645" priority="2" type="highway.service" numLanes="1" speed="5.56" allow="delivery bicycle pedestrian"/>
    <edge id="-249243234#1" from="2558808432" to="2558808427" priority="2" type="highway.service" numLanes="1" speed="5.56" shape="340.68,1579.51 378.81,1565.44 388.83,1564.75 395.84,1568.89 400.89,1579.16 406.06,1592.88" allow="delivery bicycle pedestrian"/>
    <edge id="-249243235#0" from="2558808435" to="2558808427" priority="2" type="highway.service" numLanes="1" speed="5.56" allow="delivery bicycle pedestrian"/>
    <edge id="-249243235#1" from="2558808434" to="2558808435" priority="2" type="highway.service" numLanes="1" speed="5.56" shape="400.62,1727.94 449.59,1709.21 421.86,1636.40" allow="delivery bicycle pedestrian"/>
    <edge id="-249243236" from="2558808438" to="2558808435" priority="2" type="highway.service" numLanes="1" speed="5.56" shape="357.44,1654.99 360.09,1658.30 363.54,1658.92 421.86,1636.40" allow="delivery bicycle pedestrian"/>
    <edge id="-326932211#0" from="2558808534" to="2558808533" priority="2" type="highway.service" numLanes="1" speed="5.56" shape="525.88,2181.68 518.68,2169.90 516.01,2158.24 517.17,2146.83 521.21,2136.75 528.65,2128.76 537.71,2122.05 547.04,2119.17 554.42,2109.51 555.49,2097.02 562.29,2095.24 566.68,2100.63 561.47,2110.63 566.47,2120.85 577.60,2127.80 587.52,2139.99 591.54,2156.23 588.67,2171.22 579.11,2184.63 564.94,2192.30 547.99,2193.58 535.35,2189.68" allow="delivery bicycle pedestrian"/>
    <edge id="-326932211#1" from="2558808533" to="2558808534" priority="2" type="highway.service" numLanes="1" speed="5.56" allow="delivery bicycle pedestrian"/>
    <edge id="-326932214" from="3336416137" to="3336416136" priority="1" type="highway.track" numLanes="1" speed="5.56" disallow="tram rail_urban rail rail_electric ship"/>
    <edge id="-326982787#0" from="902872109" to="902872063" name="City Circuit" priority="5" type="highway.unclassified" numLanes="1" speed="13.89" shape="1045.56,2398.77 1042.23,2402.39 1038.90,2406.10 1035.28,2410.36 1031.65,2414.95 1027.96,2419.77 1024.47,2424.48 1021.38,2429.20 1018.92,2433.15" disallow="tram rail_urban rail rail_electric ship"/>
    <edge id="-326982787#1" from="1455780431" to="902872109" name="City Circuit" priority="5" type="highway.unclassified" numLanes="1" speed="13.89" shape="1106.33,2350.61 1095.65,2355.91 1091.49,2359.94 1087.00,2363.73 1082.51,2367.64 1078.02,2371.33 1073.54,2374.91 1068.92,2378.48 1064.79,2381.51 1061.81,2384.11 1059.74,2386.18 1058.22,2387.48 1057.18,2388.24 1056.56,2388.90 1055.94,2389.44 1055.52,2389.87 1054.97,2390.31 1053.93,2391.06 1052.28,2392.25 1050.28,2394.10 1045.56,2398.77" disallow="tram rail_urban rail rail_electric ship"/>
    <edge id="-326982787#2" from="902685781" to="1455780431" name="City Circuit" priority="5" type="highway.unclassified" numLanes="1" speed="13.89" shape="1178.06,2342.11 1172.10,2341.53 1166.42,2341.08 1160.80,2340.62 1155.04,2340.27 1149.15,2340.15 1143.11,2340.35 1137.06,2340.89 1131.07,2341.87 1125.08,2343.19 1119.21,2344.95 1113.60,2347.17 1108.53,2349.51 1106.33,2350.61" disallow="tram rail_urban rail rail_electric ship"/>
    <edge id="-326982787#3" from="902686038" to="902685781" name="City Circuit" priority="5" type="highway.unclassified" numLanes="1" speed="13.89" shape="1295.83,2125.88 1299.56,2128.96 1303.02,2131.71 1306.22,2134.45 1309.15,2136.96 1311.75,2139.13 1313.88,2140.95 1315.94,2142.89 1317.20,2143.92 1319.14,2145.41 1321.60,2147.46 1324.60,2149.87 1328.00,2152.72 1331.53,2155.47 1335.20,2158.33 1339.06,2161.97 1342.84,2165.95 1346.74,2170.37 1350.43,2175.35 1353.91,2180.65 1357.25,2186.18 1360.18,2192.03 1362.69,2198.09 1364.99,2204.48 1366.96,2210.98 1368.43,2217.91 1369.30,2224.94 1369.82,2232.18 1369.94,2239.42 1369.71,2246.54 1369.15,2253.64 1367.99,2260.52 1366.35,2267.27 1364.24,2273.90 1361.80,2280.41 1359.08,2286.70 1356.03,2292.98 1352.52,2298.69 1348.67,2304.28 1344.42,2309.64 1339.70,2314.66 1334.78,2319.45 1329.66,2323.90 1324.43,2327.79 1319.13,2331.35 1313.57,2334.57 1307.94,2337.56 1302.06,2339.99 1296.11,2342.09 1290.04,2343.85 1283.91,2345.28 1277.51,2346.25 1270.99,2347.00 1264.40,2347.53 1257.82,2347.38 1251.25,2347.02 1244.62,2346.43 1238.05,2345.96 1231.42,2345.48 1224.58,2345.00 1217.88,2344.63 1211.17,2344.27 1204.40,2343.79 1197.70,2343.42 1190.86,2343.05 1184.29,2342.57 1178.06,2342.11" disallow="tram rail_urban rail rail_electric ship"/>
    <edge id="-326982787#4" from="902685707" to="902686038" name="City Circuit" priority="5" type="highway.unclassified" numLanes="1" speed="13.89" shape="1238.93,2078.81 1243.19,2082.35 1247.66,2085.89 1252.33,2089.55 1257.06,2093.44 1261.79,2097.44 1266.32,2101.32 1270.91,2105.20 1275.37,2108.97 1279.63,2112.62 1283.83,2116.16 1287.89,2119.59 1291.89,2122.79 1295.83,2125.88" disallow="tram rail_urban rail rail_electric ship"/>
    <edge id="-326982787#5" from="1455780375" to="902685707" name="City Circuit" priority="5" type="highway.unclassified" numLanes="1" speed="13.89" shape="1204.80,2049.97 1207.16,2051.97 1211.96,2055.97 1216.82,2060.19 1221.48,2064.08 1225.94,2067.84 1230.41,2071.61 1234.67,2075.26 1238.93,2078.81" disallow="tram rail_urban rail rail_electric ship"/>
    <edge id="-326982787#6" from="902872530" to="1455780375" name="City Circuit" priority="5" type="highway.unclassified" numLanes="1" speed="13.89" shape="1193.60,2039.66 1197.81,2043.08 1202.17,2047.75 1204.80,2049.97" disallow="tram rail_urban rail rail_electric ship"/>
    <edge id="-326982788" from="902872063" to="902871285" name="City Circuit" priority="5" type="highway.unclassified" numLanes="1" speed="13.89" shape="1018.92,2433.15 1016.79,2436.98 1012.35,2445.36 1010.44,2448.99 1008.39,2453.18 1006.25,2458.03 1004.17,2463.32 1002.08,2468.95 1000.06,2474.92 998.23,2481.00 996.47,2487.19 995.04,2493.51 993.76,2499.82" disallow="tram rail_urban rail rail_electric ship"/>
    <edge id="-326986972" from="3336951284" to="582915687" priority="2" type="highway.service" numLanes="1" speed="5.56" shape="618.22,2217.30 612.43,2131.27 610.28,2125.61 606.89,2122.18 581.77,2101.86 567.63,2087.13 567.23,2080.32 567.71,2070.72 570.35,2066.23 580.35,2059.30" allow="delivery bicycle pedestrian"/>
    <edge id="-326986977#0" from="3336952523" to="3336951288" priority="2" type="highway.service" numLanes="1" speed="5.56" shape="588.13,2361.26 582.00,2354.51 575.67,2344.39 572.87,2335.17 569.43,2291.56 569.02,2281.02 570.83,2273.26" allow="delivery bicycle pedestrian"/>
    <edge id="-326986977#1" from="3336952519" to="3336952523" priority="2" type="highway.service" numLanes="1" speed="5.56" shape="630.51,2368.24 629.18,2372.12 627.10,2375.79 623.87,2377.99 619.94,2378.99 615.32,2378.25 609.00,2376.04 602.62,2372.63 588.13,2361.26" allow="delivery bicycle pedestrian"/>
    <edge id="-326986985" from="3336952524" to="3336952523" priority="2" type="highway.service" numLanes="1" speed="5.56" shape="579.83,2264.56 587.64,2288.91 594.46,2297.21 599.28,2303.53 601.12,2311.01 598.86,2318.76 592.05,2330.77 588.13,2361.26" allow="delivery bicycle pedestrian"/>
    <edge id="-45437501#0" from="1765245339" to="321742003" priority="5" type="highway.unclassified" numLanes="1" speed="13.89" shape="954.95,1796.82 960.09,1797.76 963.36,1798.66 966.58,1800.08 969.59,1802.16 997.67,1825.08 1025.13,1847.69 1088.28,1902.54" disallow="tram rail_urban rail rail_electric ship"/>
    <edge id="-45437501#1" from="1765245032" to="1765245339" priority="5" type="highway.unclassified" numLanes="1" speed="13.89" shape="933.73,1807.84 936.20,1793.16 949.45,1795.83 954.95,1796.82" disallow="tram rail_urban rail rail_electric ship"/>
    <edge id="-45437501#2" from="577786368" to="1765245032" priority="5" type="highway.unclassified" numLanes="1" speed="13.89" shape="944.95,1857.34 945.10,1853.65 944.70,1850.31 943.53,1845.50 940.39,1837.43 937.97,1831.45 935.49,1824.13 934.24,1819.16 933.62,1813.55 933.73,1807.84" disallow="tram rail_urban rail rail_electric ship"/>
    <edge id="-45437501#3" from="321741956" to="577786368" priority="5" type="highway.unclassified" numLanes="1" speed="13.89" shape="928.53,1957.30 932.28,1932.12 944.95,1857.34" disallow="tram rail_urban rail rail_electric ship"/>
    <edge id="-45774276#0" from="1765245544" to="321742043" priority="5" type="highway.unclassified" numLanes="1" speed="13.89" shape="758.65,1456.99 755.72,1455.14 753.56,1453.12 751.47,1449.71 749.00,1446.52 745.18,1442.54 741.55,1439.69 736.86,1437.08 731.71,1435.00 722.23,1432.08 682.84,1419.62 642.02,1406.11 605.15,1395.56 577.79,1389.74 568.19,1388.03 559.08,1386.50 551.26,1385.84 543.13,1386.04 535.50,1386.34 527.88,1387.58 520.97,1389.63 512.70,1393.27 502.48,1399.19 495.31,1404.43 489.76,1409.22 485.01,1413.42 479.30,1418.92 474.47,1424.35 471.22,1429.77 466.03,1438.68 460.94,1450.72 456.90,1462.94" disallow="tram rail_urban rail rail_electric ship"/>
    <edge id="-45774276#1" from="1765245454" to="1765245544" priority="5" type="highway.unclassified" numLanes="1" speed="13.89" shape="764.31,1457.68 761.27,1457.72 758.65,1456.99" disallow="tram rail_urban rail rail_electric ship"/>
    <edge id="-45774276#2" from="582915666" to="1765245454" priority="5" type="highway.unclassified" numLanes="1" speed="13.89" shape="780.79,1444.85 776.38,1449.14 771.84,1453.65 767.41,1456.59 764.31,1457.68" disallow="tram rail_urban rail rail_electric ship"/>
    <edge id="-45774280" from="1765245587" to="582915706" priority="5" type="highway.unclassified" numLanes="1" speed="13.89" shape="910.07,1811.46 901.04,1866.95 770.65,2658.79" disallow="tram rail_urban rail rail_electric ship"/>
    <edge id="-47584080" from="605404679" to="605404733" name="Access" priority="5" type="highway.unclassified" numLanes="1" speed="13.89" shape="613.21,1913.08 630.06,1959.02 632.53,1969.07 634.03,2013.59 634.11,2016.79 634.63,2019.74 635.59,2021.92 637.67,2024.57 641.13,2028.63" disallow="tram rail_urban rail rail_electric ship"/>
    <edge id="-47584422#0" from="605427089" to="708521830" name="No.6 Handling and Stability" priority="5" type="highway.unclassified" numLanes="1" speed="13.89" shape="735.47,1606.81 729.03,1600.59 722.77,1593.41 635.08,1515.97 621.10,1504.65 614.38,1500.00 605.95,1495.12 596.51,1490.64 587.77,1487.75 580.14,1486.06 571.86,1484.86 563.79,1484.74 557.48,1485.50 548.02,1486.99 541.51,1488.73 533.38,1492.03 526.08,1496.25 517.98,1501.96 510.41,1508.72 504.64,1515.34 500.08,1522.09 496.05,1529.09 492.97,1536.62 490.84,1543.87 489.22,1552.48 488.48,1560.66 488.77,1570.91 489.98,1578.51 491.98,1586.61 494.57,1594.28 498.82,1602.96 503.48,1611.17 508.58,1618.75 515.66,1628.40 525.74,1642.07 532.69,1651.31 540.05,1662.38 547.53,1677.08 553.22,1692.63 557.27,1704.29 562.91,1723.33 576.41,1761.17 597.84,1811.67 608.42,1834.12 615.34,1844.94 625.78,1858.54 641.20,1875.50 656.88,1894.27 672.81,1915.71 684.60,1935.28 690.35,1946.44 696.27,1960.69 699.12,1971.45 701.33,1983.88 702.65,1995.31 703.43,2004.39 703.48,2015.61" disallow="tram rail_urban rail rail_electric ship"/>
    <edge id="-47584422#1" from="708521748" to="605427089" name="No.6 Handling and Stability" priority="5" type="highway.unclassified" numLanes="1" speed="13.89" shape="838.14,1729.80 829.70,1716.90 815.34,1697.69 792.70,1669.46 767.12,1639.89 748.14,1618.81 735.47,1606.81" disallow="tram rail_urban rail rail_electric ship"/>
    <edge id="-47584424" from="708521745" to="605427089" priority="5" type="highway.unclassified" numLanes="1" speed="13.89" shape="786.95,1754.68 786.37,1742.52 784.97,1728.76 782.90,1714.85 780.01,1702.77 771.73,1671.81 758.42,1642.97 750.29,1630.77 739.36,1614.41 735.47,1606.81" disallow="tram rail_urban rail rail_electric ship"/>
    <edge id="-47584425#0" from="605427124" to="605430542" priority="5" type="highway.unclassified" numLanes="1" speed="13.89" shape="766.51,2103.80 757.09,2100.93 746.85,2095.47 737.92,2089.20 729.86,2082.45 722.85,2075.48 717.45,2068.61 712.64,2060.70 708.45,2051.81 706.03,2044.88 703.95,2035.95 703.22,2027.01 703.23,2019.77" disallow="tram rail_urban rail rail_electric ship"/>
    <edge id="-47584425#1" from="708521738" to="605427124" priority="5" type="highway.unclassified" numLanes="1" speed="13.89" shape="837.95,2211.33 838.15,2191.25 836.58,2178.15 833.82,2163.95 828.08,2148.70 820.54,2136.95 811.71,2127.45 800.65,2118.72 792.10,2113.52 781.66,2108.19 766.51,2103.80" disallow="tram rail_urban rail rail_electric ship"/>
    <edge id="-47584426#0" from="605427124" to="708521749" priority="5" type="highway.unclassified" numLanes="1" speed="13.89" shape="766.51,2103.80 756.98,2103.02 744.96,2103.59 734.11,2105.35 722.32,2109.06 710.63,2114.67 702.26,2119.89 693.45,2126.50 688.08,2131.67 681.56,2139.82 676.40,2146.91 671.93,2155.12 666.68,2170.11 663.88,2179.96 660.98,2191.28" disallow="tram rail_urban rail rail_electric ship"/>
    <edge id="-47584426#1" from="cluster_605427160_708521831" to="605427124" priority="5" type="highway.unclassified" numLanes="1" speed="13.89" shape="860.99,2051.44 857.55,2058.05 853.85,2065.64 846.80,2075.59 841.93,2080.84 837.68,2085.62 829.86,2091.91 821.07,2097.56 812.31,2102.14 802.01,2105.03 791.91,2106.10 780.97,2106.18 766.51,2103.80" disallow="tram rail_urban rail rail_electric ship"/>
    <edge id="-47584530" from="cluster_605427160_708521831" to="605430542" priority="5" type="highway.unclassified" numLanes="1" speed="13.89" shape="860.99,2051.44 854.37,2048.23 703.23,2019.77" disallow="tram rail_urban rail rail_electric ship"/>
    <edge id="-53278515" from="674130849" to="674126283" name="CEC Access Road" priority="5" type="highway.unclassified" numLanes="1" speed="13.89" shape="1073.91,2041.18 1033.75,2055.69 1011.77,2065.85" disallow="tram rail_urban rail rail_electric ship"/>
    <edge id="-53349605" from="795452358" to="902872196" name="innovITS access ramp" priority="5" type="highway.unclassified" numLanes="1" speed="13.89" shape="1109.46,1920.70 1122.27,1932.28 1127.61,1936.76 1131.88,1941.09 1135.94,1945.11 1140.21,1949.44 1148.77,1957.05 1156.74,1965.00 1160.86,1968.56 1164.85,1972.27 1167.30,1975.34 1169.07,1979.70 1169.47,1983.72 1168.04,1987.94 1165.66,1992.86 1163.91,1995.77 1163.23,1996.97 1156.24,2005.40 1155.40,2006.35" disallow="tram rail_urban rail rail_electric ship"/>
    <edge id="-56651863" from="708521748" to="708521745" name="No.6 Handling and Stability" priority="5" type="highway.unclassified" numLanes="1" speed="13.89" shape="838.14,1729.80 833.75,1725.65 831.06,1724.07 828.30,1722.71 823.24,1721.14 818.99,1720.46 814.93,1720.11 810.58,1720.01 806.78,1720.60 803.31,1721.32 799.98,1722.57 797.15,1724.73 793.99,1727.87 792.06,1729.99 790.30,1732.82 789.77,1734.22 789.32,1735.57 788.92,1736.94 788.56,1738.64 788.42,1740.19 788.32,1742.37 788.26,1743.58 788.21,1744.88 788.14,1746.25 788.08,1747.06 786.95,1754.68" disallow="tram rail_urban rail rail_electric ship"/>
    <edge id="-56651864#0" from="605430542" to="708521749" priority="5" type="highway.unclassified" numLanes="1" speed="13.89" shape="703.23,2019.77 701.43,2033.40 699.88,2041.54 695.54,2058.11 691.38,2074.98 687.10,2090.06 674.12,2131.65 670.50,2145.35 666.96,2162.41 662.95,2180.93 660.98,2191.28" disallow="tram rail_urban rail rail_electric ship"/>
    <edge id="-56651864#1" from="708521830" to="605430542" priority="5" type="highway.unclassified" numLanes="1" speed="13.89" disallow="tram rail_urban rail rail_electric ship"/>
    <edge id="-56651864#2" from="708521745" to="708521830" priority="5" type="highway.unclassified" numLanes="1" speed="13.89" shape="786.95,1754.68 787.24,1765.57 786.84,1774.93 785.89,1783.99 784.59,1794.76 782.59,1805.13 780.73,1815.78 778.76,1823.25 775.66,1833.79 773.19,1841.87 770.63,1849.27 766.84,1858.81 763.15,1867.37 758.62,1878.23 755.32,1886.53 751.55,1895.01 748.54,1901.08 741.23,1917.08 734.19,1932.36 729.73,1942.33 723.57,1954.86 715.96,1971.99 711.15,1983.03 707.21,1994.00 705.31,2002.44 703.48,2015.61" disallow="tram rail_urban rail rail_electric ship"/>
    <edge id="-56651865#0" from="cluster_605427160_708521831" to="708521748" name="No.6 Handling and Stability" priority="5" type="highway.unclassified" numLanes="1" speed="13.89" shape="864.83,2038.47 884.61,1913.10 886.19,1895.20 886.13,1879.90 885.29,1865.64 882.66,1845.07 879.85,1829.00 876.75,1815.25 872.46,1800.66 867.11,1785.13 862.20,1773.24 852.95,1755.25 845.72,1742.08 838.14,1729.80" disallow="tram rail_urban rail rail_electric ship"/>
    <edge id="-56651865#1" from="708521738" to="cluster_605427160_708521831" name="No.6 Handling and Stability" priority="5" type="highway.unclassified" numLanes="1" speed="13.89" shape="837.95,2211.33 840.15,2193.15 864.83,2038.47" disallow="tram rail_urban rail rail_electric ship"/>
    <edge id="-56651866#0" from="708521749" to="708521738" name="No.6 Handling and Stability" priority="5" type="highway.unclassified" numLanes="1" speed="13.89" shape="660.98,2191.28 660.22,2195.79 659.20,2202.19 656.89,2222.56 655.68,2231.80 654.23,2250.20 652.99,2266.92 652.10,2282.53 651.82,2298.01 651.92,2312.75 652.17,2331.48 653.66,2354.18 655.28,2372.04 657.87,2390.23 659.85,2408.98 662.54,2422.71 665.50,2437.04 668.29,2449.16 670.69,2457.24 673.17,2465.40 676.31,2473.16 678.13,2476.75 680.07,2480.13 683.03,2485.76 686.20,2489.60 691.04,2495.43 697.80,2500.72 706.00,2506.17 712.00,2508.28 718.39,2510.34 727.97,2511.95 739.51,2512.09 753.25,2508.95 764.15,2503.92 770.49,2499.54 777.43,2493.32 782.86,2488.36 785.52,2485.63 787.56,2482.74 788.76,2480.63 791.86,2473.32 799.55,2436.95 824.00,2294.94 837.95,2211.33" disallow="tram rail_urban rail rail_electric ship"/>
    <edge id="-64969200" from="902686038" to="902685707" name="Lay-by" priority="5" type="highway.unclassified" numLanes="1" speed="13.89" shape="1295.83,2125.88 1289.57,2123.81 1242.17,2084.24 1238.93,2078.81" disallow="tram rail_urban rail rail_electric ship"/>
    <edge id="-64970026" from="902685643" to="902871652" name="Lay-by" priority="5" type="highway.unclassified" numLanes="1" speed="13.89" shape="895.42,2385.98 896.77,2390.58 898.81,2396.96 887.61,2463.46 882.78,2470.40 880.11,2474.57" disallow="tram rail_urban rail rail_electric ship"/>
    <edge id="-76609185#0" from="902871780" to="902872117" name="City Circuit" priority="5" type="highway.unclassified" numLanes="1" speed="13.89" shape="875.26,2501.72 870.01,2500.88 861.94,2499.69 855.51,2498.46 852.23,2496.95 850.65,2493.75 850.23,2489.69 850.89,2483.51 851.52,2478.26 852.92,2468.02 853.97,2460.39 849.25,2431.82" disallow="tram rail_urban rail rail_electric ship"/>
    <edge id="-76609190#0" from="902872530" to="902871834" name="City Circuit" priority="5" type="highway.unclassified" numLanes="1" speed="13.89" disallow="tram rail_urban rail rail_electric ship"/>
    <edge id="-76609190#1" from="902872196" to="902872530" name="City Circuit" priority="5" type="highway.unclassified" numLanes="1" speed="13.89" shape="1155.40,2006.35 1159.85,2010.11 1165.25,2014.57 1170.51,2018.91 1175.37,2022.91 1180.03,2026.91 1184.30,2030.56 1187.89,2033.75 1191.08,2036.71 1193.60,2039.66" disallow="tram rail_urban rail rail_electric ship"/>